version 3
run General-3-20260515-22:38:33-101672
attr configname General
attr datetime 20260515-22:38:33
attr datetimef 20260515-223833
attr experiment General
attr inifile omnetpp.ini
attr iterationvars "$0=\"avg\""
attr iterationvarsd avg
attr iterationvarsf avg-
attr measurement "$0=\"avg\""
attr network test2.LoRaNetworkTest
attr processid 101672
attr repetition 3
attr replication #3
attr resultdir results
attr runnumber 3
attr seedset 3
config sim-time-limit 120s
config network test2.LoRaNetworkTest
config **.loRaNode.LoRaNic.radio.energyConsumer.typename LoRaEnergyConsumer
config **.loRaNode.**.energySourceModule "\"^.IdealEpEnergyStorage\""
config **.loRaNode.LoRaNic.radio.energyConsumer.configFile "xmldoc(\"energyConsumptionParam.xml\")"
config **.maxTransmissionDuration 4s
config **.energyDetection -110dBm
config **.vector-recording true
config rng-class cMersenneTwister
config **.loRaGateway.numUdpApps 1
config **.loRaGateway.packetForwarder.localPort 2000
config **.loRaGateway.packetForwarder.destPort 1000
config **.loRaGateway.packetForwarder.destAddresses "\"HospitalServer\""
config **.HospitalServer.numApps 1
config **.HospitalServer.**.evaluateADRinServer true
config **.HospitalServer.app[0].typename HospitalServerApp
config **.HospitalServer.app[0].destPort 2000
config **.HospitalServer.app[0].localPort 1000
config **.HospitalServer.app[0].adrMethod "\"avg\""
config **.numberOfPacketsToSend 0
config sim-time-limit 1d
config simtime-resolution -11
config repeat 5
config **.timeToFirstPacket exponential(1000s)
config **.timeToNextPacket exponential(1000s)
config **.loRaNode.**.initialX 300m
config **.loRaNode.**.initialY 350m
config **.loRaNode.**initialLoRaSF 12
config **.loRaNode.**initialLoRaTP 14dBm
config **.loRaNode.**initialLoRaBW "125 kHz"
config **.loRaNode.**initialLoRaCR 4
config **.loRaNode.**.initFromDisplayString false
config **.loRaNode.**.evaluateADRinNode true
config **.loRaNode.numApps 1
config **.loRaNode.app[0].typename PatientSensorApp
config **.loRaGateway.**.initFromDisplayString false
config **.constraintAreaMinX 0m
config **.constraintAreaMinY 0m
config **.constraintAreaMinZ 0m
config **.constraintAreaMaxZ 0m
config **.radio.radioMediumModule "\"LoRaMedium\""
config **.minInterferenceTime 0s
config **.constraintAreaMaxX 2376.0m
config **.constraintAreaMaxY 1090.0m
config **.loRaGateway.**.initialX 544.00m
config **.loRaGateway.**.initialY 544.00m

par LoRaNetworkTest.gwRouter.ethg$o[0].channel typename "\"inet.node.ethernet.Eth1G\""
par LoRaNetworkTest.gwRouter.ethg$o[0].channel disabled false
attr mutable ""
par LoRaNetworkTest.gwRouter.ethg$o[0].channel delay 5e-08s
attr mutable ""
attr unit s
par LoRaNetworkTest.gwRouter.ethg$o[0].channel datarate 1e+09bps
attr mutable ""
attr unit bps
par LoRaNetworkTest.gwRouter.ethg$o[0].channel ber 0
attr mutable ""
par LoRaNetworkTest.gwRouter.ethg$o[0].channel per 0
attr mutable ""
par LoRaNetworkTest.gwRouter.ethg$o[0].channel length 10m
attr unit m
par LoRaNetworkTest.loRaGateway.ethg$o[0].channel typename "\"inet.node.ethernet.Eth1G\""
par LoRaNetworkTest.loRaGateway.ethg$o[0].channel disabled false
attr mutable ""
par LoRaNetworkTest.loRaGateway.ethg$o[0].channel delay 5e-08s
attr mutable ""
attr unit s
par LoRaNetworkTest.loRaGateway.ethg$o[0].channel datarate 1e+09bps
attr mutable ""
attr unit bps
par LoRaNetworkTest.loRaGateway.ethg$o[0].channel ber 0
attr mutable ""
par LoRaNetworkTest.loRaGateway.ethg$o[0].channel per 0
attr mutable ""
par LoRaNetworkTest.loRaGateway.ethg$o[0].channel length 10m
attr unit m
par LoRaNetworkTest.gwRouter.ethg$o[1].channel typename "\"inet.node.ethernet.Eth1G\""
par LoRaNetworkTest.gwRouter.ethg$o[1].channel disabled false
attr mutable ""
par LoRaNetworkTest.gwRouter.ethg$o[1].channel delay 5e-08s
attr mutable ""
attr unit s
par LoRaNetworkTest.gwRouter.ethg$o[1].channel datarate 1e+09bps
attr mutable ""
attr unit bps
par LoRaNetworkTest.gwRouter.ethg$o[1].channel ber 0
attr mutable ""
par LoRaNetworkTest.gwRouter.ethg$o[1].channel per 0
attr mutable ""
par LoRaNetworkTest.gwRouter.ethg$o[1].channel length 10m
attr unit m
par LoRaNetworkTest.HospitalServer.ethg$o[0].channel typename "\"inet.node.ethernet.Eth1G\""
par LoRaNetworkTest.HospitalServer.ethg$o[0].channel disabled false
attr mutable ""
par LoRaNetworkTest.HospitalServer.ethg$o[0].channel delay 5e-08s
attr mutable ""
attr unit s
par LoRaNetworkTest.HospitalServer.ethg$o[0].channel datarate 1e+09bps
attr mutable ""
attr unit bps
par LoRaNetworkTest.HospitalServer.ethg$o[0].channel ber 0
attr mutable ""
par LoRaNetworkTest.HospitalServer.ethg$o[0].channel per 0
attr mutable ""
par LoRaNetworkTest.HospitalServer.ethg$o[0].channel length 10m
attr unit m
par LoRaNetworkTest.loRaNode.interfaceTable typename "\"inet.networklayer.common.InterfaceTable\""
par LoRaNetworkTest.loRaNode.interfaceTable displayAddresses false
par LoRaNetworkTest.loRaNode.mobility typename "\"inet.mobility.static.StationaryMobility\""
par LoRaNetworkTest.loRaNode.mobility subjectModule "\"^\""
par LoRaNetworkTest.loRaNode.mobility coordinateSystemModule "\"\""
par LoRaNetworkTest.loRaNode.mobility displayStringTextFormat "\"p: %p\\nv: %v\""
attr mutable ""
par LoRaNetworkTest.loRaNode.mobility updateDisplayString true
par LoRaNetworkTest.loRaNode.mobility constraintAreaMinX 0m
attr unit m
par LoRaNetworkTest.loRaNode.mobility constraintAreaMinY 0m
attr unit m
par LoRaNetworkTest.loRaNode.mobility constraintAreaMinZ 0m
attr unit m
par LoRaNetworkTest.loRaNode.mobility constraintAreaMaxX 2376m
attr unit m
par LoRaNetworkTest.loRaNode.mobility constraintAreaMaxY 1090m
attr unit m
par LoRaNetworkTest.loRaNode.mobility constraintAreaMaxZ 0m
attr unit m
par LoRaNetworkTest.loRaNode.mobility initialX 300m
attr unit m
par LoRaNetworkTest.loRaNode.mobility initialY 350m
attr unit m
par LoRaNetworkTest.loRaNode.mobility initialZ 0m
attr unit m
par LoRaNetworkTest.loRaNode.mobility initialLatitude "nan deg"
attr unit deg
par LoRaNetworkTest.loRaNode.mobility initialLongitude "nan deg"
attr unit deg
par LoRaNetworkTest.loRaNode.mobility initialAltitude 0m
attr unit m
par LoRaNetworkTest.loRaNode.mobility initialHeading 0deg
attr unit deg
par LoRaNetworkTest.loRaNode.mobility initialElevation 0deg
attr unit deg
par LoRaNetworkTest.loRaNode.mobility initialBank 0deg
attr unit deg
par LoRaNetworkTest.loRaNode.mobility initFromDisplayString false
par LoRaNetworkTest.loRaNode.mobility updateFromDisplayString true
par LoRaNetworkTest.loRaNode.LoRaNic.radioIn.channel typename "\"ned.IdealChannel\""
par LoRaNetworkTest.loRaNode.LoRaNic.mac.upperLayerOut.channel typename "\"ned.IdealChannel\""
par LoRaNetworkTest.loRaNode.LoRaNic.upperLayerIn.channel typename "\"ned.IdealChannel\""
par LoRaNetworkTest.loRaNode.LoRaNic.queue typename "\"inet.queueing.queue.DropTailQueue\""
par LoRaNetworkTest.loRaNode.LoRaNic.queue displayStringTextFormat "\"contains %p pk (%l) pushed %u\\npulled %o removed %r dropped %d\""
par LoRaNetworkTest.loRaNode.LoRaNic.queue packetCapacity -1
par LoRaNetworkTest.loRaNode.LoRaNic.queue dataCapacity -1b
attr unit b
par LoRaNetworkTest.loRaNode.LoRaNic.queue dropperClass "\"inet::queueing::PacketAtCollectionEndDropper\""
par LoRaNetworkTest.loRaNode.LoRaNic.queue comparatorClass "\"\""
par LoRaNetworkTest.loRaNode.LoRaNic.queue bufferModule "\"\""
scalar LoRaNetworkTest.loRaNode.LoRaNic.queue queueLength:last nan
attr autoWarmupFilter false
attr interpolationmode sample-hold
attr recordingmode last
attr source "warmup(atomic(constant0(packetPushEnded) + count(packetPushStarted) - count(packetPulled) - count(packetRemoved) - count(packetDropped)))"
attr title "queue length, last"
attr unit pk
scalar LoRaNetworkTest.loRaNode.LoRaNic.queue queueLength:max -nan
attr autoWarmupFilter false
attr interpolationmode sample-hold
attr recordingmode max
attr source "warmup(atomic(constant0(packetPushEnded) + count(packetPushStarted) - count(packetPulled) - count(packetRemoved) - count(packetDropped)))"
attr title "queue length, max"
attr unit pk
scalar LoRaNetworkTest.loRaNode.LoRaNic.queue queueLength:timeavg -nan
attr autoWarmupFilter false
attr interpolationmode sample-hold
attr recordingmode timeavg
attr source "warmup(atomic(constant0(packetPushEnded) + count(packetPushStarted) - count(packetPulled) - count(packetRemoved) - count(packetDropped)))"
attr title "queue length, timeavg"
attr unit pk
scalar LoRaNetworkTest.loRaNode.LoRaNic.queue queueBitLength:last nan
attr autoWarmupFilter false
attr interpolationmode sample-hold
attr recordingmode last
attr source "warmup(atomic(constant0(packetPushEnded) + sum(packetLength(packetPushStarted)) - sum(packetLength(packetPulled)) - sum(packetLength(packetRemoved)) - sum(packetLength(packetDropped))))"
attr title "queue bit length, last"
attr unit b
scalar LoRaNetworkTest.loRaNode.LoRaNic.queue queueBitLength:max -nan
attr autoWarmupFilter false
attr interpolationmode sample-hold
attr recordingmode max
attr source "warmup(atomic(constant0(packetPushEnded) + sum(packetLength(packetPushStarted)) - sum(packetLength(packetPulled)) - sum(packetLength(packetRemoved)) - sum(packetLength(packetDropped))))"
attr title "queue bit length, max"
attr unit b
scalar LoRaNetworkTest.loRaNode.LoRaNic.queue queueBitLength:timeavg -nan
attr autoWarmupFilter false
attr interpolationmode sample-hold
attr recordingmode timeavg
attr source "warmup(atomic(constant0(packetPushEnded) + sum(packetLength(packetPushStarted)) - sum(packetLength(packetPulled)) - sum(packetLength(packetRemoved)) - sum(packetLength(packetDropped))))"
attr title "queue bit length, timeavg"
attr unit b
statistic LoRaNetworkTest.loRaNode.LoRaNic.queue queueingTime:histogram
field count 0
field mean -nan
field stddev -nan
field min -nan
field max -nan
field sum 0
field sqrsum 0
attr interpolationmode none
attr recordingmode histogram
attr source queueingTime(packetPulled)
attr title "queueing times"
attr unit s
bin	-inf	0
bin	0	0
bin	1	0
scalar LoRaNetworkTest.loRaNode.LoRaNic.queue outgoingPackets:count 0
attr recordingmode count
attr source packetPulled
attr title "outgoing packets, count"
attr unit pk
scalar LoRaNetworkTest.loRaNode.LoRaNic.queue outgoingPacketLengths:sum 0
attr interpolationmode none
attr recordingmode sum
attr source packetLength(packetPulled)
attr title "outgoing packet lengths, sum"
attr unit b
statistic LoRaNetworkTest.loRaNode.LoRaNic.queue outgoingPacketLengths:histogram
field count 0
field mean -nan
field stddev -nan
field min -nan
field max -nan
field sum 0
field sqrsum 0
attr interpolationmode none
attr recordingmode histogram
attr source packetLength(packetPulled)
attr title "outgoing packet lengths"
attr unit b
bin	-inf	0
bin	0	0
bin	1	0
statistic LoRaNetworkTest.loRaNode.LoRaNic.queue flowQueueingTime:histogram
field count 0
field mean -nan
field stddev -nan
field min -nan
field max -nan
field sum 0
field sqrsum 0
attr interpolationmode none
attr recordingmode histogram
attr source queueingTime(demuxFlow(packetPulled))
attr title "flow queueing times"
attr unit s
bin	-inf	0
bin	0	0
bin	1	0
scalar LoRaNetworkTest.loRaNode.LoRaNic.queue incomingPackets:count 0
attr recordingmode count
attr source packetPushStarted
attr title "incoming packets, count"
attr unit pk
scalar LoRaNetworkTest.loRaNode.LoRaNic.queue incomingPacketLengths:sum 0
attr interpolationmode none
attr recordingmode sum
attr source packetLength(packetPushStarted)
attr title "incoming packet lengths, sum"
attr unit b
statistic LoRaNetworkTest.loRaNode.LoRaNic.queue incomingPacketLengths:histogram
field count 0
field mean -nan
field stddev -nan
field min -nan
field max -nan
field sum 0
field sqrsum 0
attr interpolationmode none
attr recordingmode histogram
attr source packetLength(packetPushStarted)
attr title "incoming packet lengths"
attr unit b
bin	-inf	0
bin	0	0
bin	1	0
scalar LoRaNetworkTest.loRaNode.LoRaNic.queue droppedPacketsQueueOverflow:count 0
attr interpolationmode none
attr recordingmode count
attr source packetDropReasonIsQueueOverflow(packetDropped)
attr title "dropped packets: queue overflow, count"
attr unit pk
scalar LoRaNetworkTest.loRaNode.LoRaNic.queue droppedPacketLengthsQueueOverflow:sum 0
attr interpolationmode none
attr recordingmode sum
attr source packetLength(packetDropReasonIsQueueOverflow(packetDropped))
attr title "dropped packet lengths: queue overflow, sum"
attr unit b
par LoRaNetworkTest.loRaNode.LoRaNic.mac typename "\"flora.LoRa.LoRaMac\""
par LoRaNetworkTest.loRaNode.LoRaNic.mac interfaceTableModule "\"LoRaNetworkTest.loRaNode.interfaceTable\""
par LoRaNetworkTest.loRaNode.LoRaNic.mac radioModule "\"^.radio\""
par LoRaNetworkTest.loRaNode.LoRaNic.mac address "\"0A-AA-00-00-00-01\""
attr mutable ""
par LoRaNetworkTest.loRaNode.LoRaNic.mac fcsMode "\"declared\""
attr enum declared,computed
par LoRaNetworkTest.loRaNode.LoRaNic.mac useAck true
par LoRaNetworkTest.loRaNode.LoRaNic.mac bitrate 250bps
attr unit bps
par LoRaNetworkTest.loRaNode.LoRaNic.mac headerLength 17B
attr unit B
par LoRaNetworkTest.loRaNode.LoRaNic.mac ackLength 14B
attr unit B
par LoRaNetworkTest.loRaNode.LoRaNic.mac sifsTime 1e-05s
attr unit s
par LoRaNetworkTest.loRaNode.LoRaNic.mac slotTime 2e-05s
attr unit s
par LoRaNetworkTest.loRaNode.LoRaNic.mac difsTime 5e-05s
attr unit s
par LoRaNetworkTest.loRaNode.LoRaNic.mac ackTimeout 0.44803s
attr unit s
par LoRaNetworkTest.loRaNode.LoRaNic.mac mtu 1500
par LoRaNetworkTest.loRaNode.LoRaNic.mac cwMin 31
par LoRaNetworkTest.loRaNode.LoRaNic.mac cwMax 1023
par LoRaNetworkTest.loRaNode.LoRaNic.mac cwMulticast 31
par LoRaNetworkTest.loRaNode.LoRaNic.mac retryLimit 7
scalar LoRaNetworkTest.loRaNode.LoRaNic.mac numRetry 0
scalar LoRaNetworkTest.loRaNode.LoRaNic.mac numSentWithoutRetry 0
scalar LoRaNetworkTest.loRaNode.LoRaNic.mac numGivenUp 0
scalar LoRaNetworkTest.loRaNode.LoRaNic.mac numSent 0
scalar LoRaNetworkTest.loRaNode.LoRaNic.mac numReceived 0
scalar LoRaNetworkTest.loRaNode.LoRaNic.mac numSentBroadcast 0
scalar LoRaNetworkTest.loRaNode.LoRaNic.mac numReceivedBroadcast 0
scalar LoRaNetworkTest.loRaNode.LoRaNic.mac packetDropIncorrectlyReceived:count 0
attr interpolationmode none
attr recordingmode count
attr source packetDropReasonIsIncorrectlyReceived(packetDropped)
attr title "packet drop: incorrectly received, count"
scalar LoRaNetworkTest.loRaNode.LoRaNic.mac packetDropIncorrectlyReceived:sum(packetBytes) 0
attr interpolationmode none
attr recordingmode sum(packetBytes)
attr source packetDropReasonIsIncorrectlyReceived(packetDropped)
attr title "packet drop: incorrectly received, sum(packetBytes)"
scalar LoRaNetworkTest.loRaNode.LoRaNic.mac packetDropNotAddressedToUs:count 0
attr interpolationmode none
attr recordingmode count
attr source packetDropReasonIsNotAddressedToUs(packetDropped)
attr title "packet drop: not addressed to us, count"
scalar LoRaNetworkTest.loRaNode.LoRaNic.mac packetDropNotAddressedToUs:sum(packetBytes) 0
attr interpolationmode none
attr recordingmode sum(packetBytes)
attr source packetDropReasonIsNotAddressedToUs(packetDropped)
attr title "packet drop: not addressed to us, sum(packetBytes)"
scalar LoRaNetworkTest.loRaNode.LoRaNic.mac packetDropQueueOverflow:count 0
attr interpolationmode none
attr recordingmode count
attr source packetDropReasonIsQueueOverflow(packetDropped)
attr title "packet drop: queue overflow, count"
scalar LoRaNetworkTest.loRaNode.LoRaNic.mac packetDropQueueOverflow:sum(packetBytes) 0
attr interpolationmode none
attr recordingmode sum(packetBytes)
attr source packetDropReasonIsQueueOverflow(packetDropped)
attr title "packet drop: queue overflow, sum(packetBytes)"
scalar LoRaNetworkTest.loRaNode.LoRaNic.mac packetDropRetryLimitReached:count 0
attr interpolationmode none
attr recordingmode count
attr source packetDropReasonIsRetryLimitReached(packetDropped)
attr title "packet drop: retry limit reached, count"
scalar LoRaNetworkTest.loRaNode.LoRaNic.mac packetDropRetryLimitReached:sum(packetBytes) 0
attr interpolationmode none
attr recordingmode sum(packetBytes)
attr source packetDropReasonIsRetryLimitReached(packetDropped)
attr title "packet drop: retry limit reached, sum(packetBytes)"
scalar LoRaNetworkTest.loRaNode.LoRaNic.mac linkBroken:count 0
attr interpolationmode none
attr recordingmode count
attr source linkBroken
attr title "link break, count"
par LoRaNetworkTest.loRaNode.LoRaNic.radio.antenna typename "\"inet.physicallayer.wireless.common.antenna.IsotropicAntenna\""
par LoRaNetworkTest.loRaNode.LoRaNic.radio.antenna mobilityModule "\"^.^.^.mobility\""
par LoRaNetworkTest.loRaNode.LoRaNic.radio.antenna numAntennas 1
par LoRaNetworkTest.loRaNode.LoRaNic.radio.transmitter typename "\"flora.LoRaPhy.LoRaTransmitter\""
par LoRaNetworkTest.loRaNode.LoRaNic.radio.transmitter preambleDuration 0.001s
attr unit s
par LoRaNetworkTest.loRaNode.LoRaNic.radio.transmitter headerLength 0b
attr unit b
par LoRaNetworkTest.loRaNode.LoRaNic.radio.transmitter bitrate 250000bps
attr unit bps
par LoRaNetworkTest.loRaNode.LoRaNic.radio.transmitter power 0.025118W
attr unit W
par LoRaNetworkTest.loRaNode.LoRaNic.radio.transmitter centerFrequency 8.68e+08Hz
attr unit Hz
par LoRaNetworkTest.loRaNode.LoRaNic.radio.transmitter bandwidth 250000Hz
attr unit Hz
par LoRaNetworkTest.loRaNode.LoRaNic.radio.transmitter modulation "\"LoRaModulation\""
scalar LoRaNetworkTest.loRaNode.LoRaNic.radio.transmitter LoRaTransmissionCreated:count 0
attr recordingmode count
attr source LoRaTransmissionCreated
par LoRaNetworkTest.loRaNode.LoRaNic.radio.receiver typename "\"flora.LoRaPhy.LoRaReceiver\""
par LoRaNetworkTest.loRaNode.LoRaNic.radio.receiver snirThreshold -8dB
attr unit dB
par LoRaNetworkTest.loRaNode.LoRaNic.radio.receiver snirThresholdMode "\"min\""
attr unit min,mean
par LoRaNetworkTest.loRaNode.LoRaNic.radio.receiver energyDetection -110dBm
attr unit dBm
par LoRaNetworkTest.loRaNode.LoRaNic.radio.receiver sensitivity -137dBm
attr unit dBm
par LoRaNetworkTest.loRaNode.LoRaNic.radio.receiver centerFrequency 8.68e+08Hz
attr unit Hz
par LoRaNetworkTest.loRaNode.LoRaNic.radio.receiver bandwidth 250000Hz
attr unit Hz
par LoRaNetworkTest.loRaNode.LoRaNic.radio.receiver modulation "\"BPSK\""
par LoRaNetworkTest.loRaNode.LoRaNic.radio.receiver alohaChannelModel false
scalar LoRaNetworkTest.loRaNode.LoRaNic.radio.receiver numCollisions 0
scalar LoRaNetworkTest.loRaNode.LoRaNic.radio.receiver rcvBelowSensitivity 0
scalar LoRaNetworkTest.loRaNode.LoRaNic.radio.receiver LoRaReceptionCollision:count 0
attr recordingmode count
attr source LoRaReceptionCollision
par LoRaNetworkTest.loRaNode.LoRaNic.radio.energyConsumer typename "\"flora.LoRaEnergyModules.LoRaEnergyConsumer\""
par LoRaNetworkTest.loRaNode.LoRaNic.radio.energyConsumer energySourceModule "\"^.IdealEpEnergyStorage\""
par LoRaNetworkTest.loRaNode.LoRaNic.radio.energyConsumer offPowerConsumption 0W
attr unit W
par LoRaNetworkTest.loRaNode.LoRaNic.radio.energyConsumer sleepPowerConsumption 0.001W
attr unit W
par LoRaNetworkTest.loRaNode.LoRaNic.radio.energyConsumer switchingPowerConsumption 0.001W
attr unit W
par LoRaNetworkTest.loRaNode.LoRaNic.radio.energyConsumer receiverIdlePowerConsumption 0.002W
attr unit W
par LoRaNetworkTest.loRaNode.LoRaNic.radio.energyConsumer receiverBusyPowerConsumption 0.005W
attr unit W
par LoRaNetworkTest.loRaNode.LoRaNic.radio.energyConsumer receiverReceivingPowerConsumption 0.01W
attr unit W
par LoRaNetworkTest.loRaNode.LoRaNic.radio.energyConsumer receiverReceivingPreamblePowerConsumption 0.01W
attr unit W
par LoRaNetworkTest.loRaNode.LoRaNic.radio.energyConsumer receiverReceivingHeaderPowerConsumption 0.01W
attr unit W
par LoRaNetworkTest.loRaNode.LoRaNic.radio.energyConsumer receiverReceivingDataPowerConsumption 0.01W
attr unit W
par LoRaNetworkTest.loRaNode.LoRaNic.radio.energyConsumer transmitterIdlePowerConsumption 0.002W
attr unit W
par LoRaNetworkTest.loRaNode.LoRaNic.radio.energyConsumer transmitterTransmittingPowerConsumption 0.1W
attr unit W
par LoRaNetworkTest.loRaNode.LoRaNic.radio.energyConsumer transmitterTransmittingPreamblePowerConsumption 0.1W
attr unit W
par LoRaNetworkTest.loRaNode.LoRaNic.radio.energyConsumer transmitterTransmittingHeaderPowerConsumption 0.1W
attr unit W
par LoRaNetworkTest.loRaNode.LoRaNic.radio.energyConsumer transmitterTransmittingDataPowerConsumption 0.1W
attr unit W
par LoRaNetworkTest.loRaNode.LoRaNic.radio.energyConsumer configFile "<root>...</root> at /home/roo/Downloads/system_simulation_omnet/simulations//energyConsumptionParam.xml:2"
scalar LoRaNetworkTest.loRaNode.LoRaNic.radio.energyConsumer totalEnergyConsumed 0
par LoRaNetworkTest.loRaNode.LoRaNic.radio.IdealEpEnergyStorage typename "\"inet.power.storage.IdealEpEnergyStorage\""
scalar LoRaNetworkTest.loRaNode.LoRaNic.radio.IdealEpEnergyStorage residualEnergyCapacity:last nan
attr interpolationmode linear
attr recordingmode last
attr source residualEnergyCapacityChanged
attr title "Residual energy capacity, last"
par LoRaNetworkTest.loRaNode.LoRaNic.radio typename "\"flora.LoRa.LoRaRadio\""
par LoRaNetworkTest.loRaNode.LoRaNic.radio radioMediumModule "\"LoRaMedium\""
par LoRaNetworkTest.loRaNode.LoRaNic.radio energySourceModule "\"^.IdealEpEnergyStorage\""
par LoRaNetworkTest.loRaNode.LoRaNic.radio initialRadioMode "\"off\""
attr enum off,sleep,receiver,transmitter,transceiver
par LoRaNetworkTest.loRaNode.LoRaNic.radio switchingTimes "\"ms 0 0 0 0 0 0 0 0 0 0 0 0 0 0 0 0 0 0 0 0 0 0 0 0 0\""
par LoRaNetworkTest.loRaNode.LoRaNic.radio sendRawBytes false
par LoRaNetworkTest.loRaNode.LoRaNic.radio separateTransmissionParts false
par LoRaNetworkTest.loRaNode.LoRaNic.radio separateReceptionParts false
par LoRaNetworkTest.loRaNode.LoRaNic.radio displayCommunicationRange false
par LoRaNetworkTest.loRaNode.LoRaNic.radio displayInterferenceRange false
par LoRaNetworkTest.loRaNode.LoRaNic.radio centerFrequency 8.68e+08Hz
attr unit Hz
par LoRaNetworkTest.loRaNode.LoRaNic.radio bandwidth 250000Hz
attr unit Hz
par LoRaNetworkTest.loRaNode.LoRaNic.radio iAmGateway false
scalar LoRaNetworkTest.loRaNode.LoRaNic.radio radioMode:count 3
attr interpolationmode sample-hold
attr recordingmode count
attr source radioModeChanged
attr title "Radio mode, count"
scalar LoRaNetworkTest.loRaNode.LoRaNic.radio receptionState:count 0
attr interpolationmode sample-hold
attr recordingmode count
attr source receptionStateChanged
attr title "Radio reception state, count"
scalar LoRaNetworkTest.loRaNode.LoRaNic.radio transmissionState:count 0
attr interpolationmode sample-hold
attr recordingmode count
attr source transmissionStateChanged
attr title "Radio transmission state, count"
statistic LoRaNetworkTest.loRaNode.LoRaNic.radio minSnir:histogram
field count 0
field mean -nan
field stddev -nan
field min -nan
field max -nan
field sum 0
field sqrsum 0
attr recordingmode histogram
attr source minimumSnir(packetSentToUpper)
attr title "Min SNIR"
bin	-inf	0
bin	0	0
bin	1	0
statistic LoRaNetworkTest.loRaNode.LoRaNic.radio packetErrorRate:histogram
field count 0
field mean -nan
field stddev -nan
field min -nan
field max -nan
field sum 0
field sqrsum 0
attr recordingmode histogram
attr source packetErrorRate(packetSentToUpper)
attr title "Packet error rate"
bin	-inf	0
bin	0	0
bin	1	0
statistic LoRaNetworkTest.loRaNode.LoRaNic.radio bitErrorRate:histogram
field count 0
field mean -nan
field stddev -nan
field min -nan
field max -nan
field sum 0
field sqrsum 0
attr recordingmode histogram
attr source bitErrorRate(packetSentToUpper)
attr title "Bit error rate"
bin	-inf	0
bin	0	0
bin	1	0
statistic LoRaNetworkTest.loRaNode.LoRaNic.radio symbolErrorRate:histogram
field count 0
field mean -nan
field stddev -nan
field min -nan
field max -nan
field sum 0
field sqrsum 0
attr recordingmode histogram
attr source symbolErrorRate(packetSentToUpper)
attr title "Symbol error rate"
bin	-inf	0
bin	0	0
bin	1	0
par LoRaNetworkTest.loRaNode.LoRaNic typename "\"flora.LoRa.LoRaNic\""
par LoRaNetworkTest.loRaNode.LoRaNic displayStringTextFormat "\"%a (%i)\\n%m\""
par LoRaNetworkTest.loRaNode.LoRaNic recordPcap false
par LoRaNetworkTest.loRaNode.LoRaNic numPcapRecorders 0
par LoRaNetworkTest.loRaNode.LoRaNic interfaceTableModule "\"LoRaNetworkTest.loRaNode.interfaceTable\""
par LoRaNetworkTest.loRaNode.LoRaNic energySourceModule "\"^.IdealEpEnergyStorage\""
par LoRaNetworkTest.loRaNode.LoRaNic protocol "\"\""
scalar LoRaNetworkTest.loRaNode.LoRaNic packetDropInterfaceDown:count 0
attr interpolationmode none
attr recordingmode count
attr source packetDropReasonIsInterfaceDown(packetDropped)
attr title "packet drops: interface down, count"
scalar LoRaNetworkTest.loRaNode.LoRaNic packetDropInterfaceDown:sum(packetBytes) 0
attr interpolationmode none
attr recordingmode sum(packetBytes)
attr source packetDropReasonIsInterfaceDown(packetDropped)
attr title "packet drops: interface down, sum(packetBytes)"
scalar LoRaNetworkTest.loRaNode.LoRaNic packetDropNoCarrier:count 0
attr interpolationmode none
attr recordingmode count
attr source packetDropReasonIsNoCarrier(packetDropped)
attr title "packet drops: no carrier, count"
scalar LoRaNetworkTest.loRaNode.LoRaNic packetDropNoCarrier:sum(packetBytes) 0
attr interpolationmode none
attr recordingmode sum(packetBytes)
attr source packetDropReasonIsNoCarrier(packetDropped)
attr title "packet drops: no carrier, sum(packetBytes)"
par LoRaNetworkTest.loRaNode.app[0] typename "\"test2.PatientSensorApp\""
par LoRaNetworkTest.loRaNode.app[0] numberOfPacketsToSend 0
par LoRaNetworkTest.loRaNode.app[0] timeToFirstPacket exponential(1000s)
attr unit s
par LoRaNetworkTest.loRaNode.app[0] timeToNextPacket exponential(1000s)
attr unit s
par LoRaNetworkTest.loRaNode.app[0] initialLoRaTP 14dBm
attr unit dBm
par LoRaNetworkTest.loRaNode.app[0] initialLoRaCF 8.68e+08Hz
attr unit Hz
par LoRaNetworkTest.loRaNode.app[0] initialLoRaSF 12
par LoRaNetworkTest.loRaNode.app[0] initialLoRaBW 125000Hz
attr unit Hz
par LoRaNetworkTest.loRaNode.app[0] initialLoRaCR 4
par LoRaNetworkTest.loRaNode.app[0] initialUseHeader true
par LoRaNetworkTest.loRaNode.app[0] evaluateADRinNode true
par LoRaNetworkTest.loRaNode.app[0] dataSize 10B
attr unit B
par LoRaNetworkTest.loRaNode.app[0] uniform_rate_IAT 1
par LoRaNetworkTest.loRaNode.app[0] expo_rate_lambda 3
par LoRaNetworkTest.loRaNode.app[0] emergencyThreshold 0.2
scalar LoRaNetworkTest.loRaNode.app[0] positionX 300
scalar LoRaNetworkTest.loRaNode.app[0] positionY 350
scalar LoRaNetworkTest.loRaNode.app[0] finalTP 14
scalar LoRaNetworkTest.loRaNode.app[0] finalSF 12
scalar LoRaNetworkTest.loRaNode.app[0] sentPackets 0
scalar LoRaNetworkTest.loRaNode.app[0] receivedADRCommands 0
scalar LoRaNetworkTest.loRaNode.app[0] LoRa_AppPacketSent:count 0
attr recordingmode count
attr source LoRa_AppPacketSent
par LoRaNetworkTest.loRaNode typename "\"flora.LoraNode.LoRaNode\""
par LoRaNetworkTest.loRaNode numApps 1
par LoRaNetworkTest.loRaNode deploymentType "\"\""
par LoRaNetworkTest.loRaNode maxGatewayDistance 320
par LoRaNetworkTest.loRaNode gatewayX 320
par LoRaNetworkTest.loRaNode gatewayY 320
par LoRaNetworkTest.loRaGateway.ethg$i[0].channel typename "\"ned.IdealChannel\""
par LoRaNetworkTest.loRaGateway.eth[0].phys$o.channel typename "\"ned.IdealChannel\""
par LoRaNetworkTest.loRaGateway.at typename "\"inet.common.MessageDispatcher\""
par LoRaNetworkTest.loRaGateway.at displayStringTextFormat "\"processed %p pk (%l)\""
par LoRaNetworkTest.loRaGateway.at forwardServiceRegistration true
par LoRaNetworkTest.loRaGateway.at forwardProtocolRegistration true
par LoRaNetworkTest.loRaGateway.tn typename "\"inet.common.MessageDispatcher\""
par LoRaNetworkTest.loRaGateway.tn displayStringTextFormat "\"processed %p pk (%l)\""
par LoRaNetworkTest.loRaGateway.tn forwardServiceRegistration true
par LoRaNetworkTest.loRaGateway.tn forwardProtocolRegistration true
par LoRaNetworkTest.loRaGateway.nl typename "\"inet.common.MessageDispatcher\""
par LoRaNetworkTest.loRaGateway.nl displayStringTextFormat "\"processed %p pk (%l)\""
par LoRaNetworkTest.loRaGateway.nl forwardServiceRegistration true
par LoRaNetworkTest.loRaGateway.nl forwardProtocolRegistration true
par LoRaNetworkTest.loRaGateway.cb typename "\"inet.common.MessageDispatcher\""
par LoRaNetworkTest.loRaGateway.cb displayStringTextFormat "\"processed %p pk (%l)\""
par LoRaNetworkTest.loRaGateway.cb forwardServiceRegistration true
par LoRaNetworkTest.loRaGateway.cb forwardProtocolRegistration true
par LoRaNetworkTest.loRaGateway.bl typename "\"inet.common.MessageDispatcher\""
par LoRaNetworkTest.loRaGateway.bl displayStringTextFormat "\"processed %p pk (%l)\""
par LoRaNetworkTest.loRaGateway.bl forwardServiceRegistration true
par LoRaNetworkTest.loRaGateway.bl forwardProtocolRegistration true
par LoRaNetworkTest.loRaGateway.li typename "\"inet.common.MessageDispatcher\""
par LoRaNetworkTest.loRaGateway.li displayStringTextFormat "\"processed %p pk (%l)\""
par LoRaNetworkTest.loRaGateway.li forwardServiceRegistration true
par LoRaNetworkTest.loRaGateway.li forwardProtocolRegistration true
par LoRaNetworkTest.loRaGateway.interfaceTable typename "\"inet.networklayer.common.InterfaceTable\""
par LoRaNetworkTest.loRaGateway.interfaceTable displayAddresses false
par LoRaNetworkTest.loRaGateway.mobility typename "\"inet.mobility.static.StationaryMobility\""
par LoRaNetworkTest.loRaGateway.mobility subjectModule "\"^\""
par LoRaNetworkTest.loRaGateway.mobility coordinateSystemModule "\"\""
par LoRaNetworkTest.loRaGateway.mobility displayStringTextFormat "\"p: %p\\nv: %v\""
attr mutable ""
par LoRaNetworkTest.loRaGateway.mobility updateDisplayString true
par LoRaNetworkTest.loRaGateway.mobility constraintAreaMinX 0m
attr unit m
par LoRaNetworkTest.loRaGateway.mobility constraintAreaMinY 0m
attr unit m
par LoRaNetworkTest.loRaGateway.mobility constraintAreaMinZ 0m
attr unit m
par LoRaNetworkTest.loRaGateway.mobility constraintAreaMaxX 2376m
attr unit m
par LoRaNetworkTest.loRaGateway.mobility constraintAreaMaxY 1090m
attr unit m
par LoRaNetworkTest.loRaGateway.mobility constraintAreaMaxZ 0m
attr unit m
par LoRaNetworkTest.loRaGateway.mobility initialX 544m
attr unit m
par LoRaNetworkTest.loRaGateway.mobility initialY 544m
attr unit m
par LoRaNetworkTest.loRaGateway.mobility initialZ 0m
attr unit m
par LoRaNetworkTest.loRaGateway.mobility initialLatitude "nan deg"
attr unit deg
par LoRaNetworkTest.loRaGateway.mobility initialLongitude "nan deg"
attr unit deg
par LoRaNetworkTest.loRaGateway.mobility initialAltitude 0m
attr unit m
par LoRaNetworkTest.loRaGateway.mobility initialHeading 0deg
attr unit deg
par LoRaNetworkTest.loRaGateway.mobility initialElevation 0deg
attr unit deg
par LoRaNetworkTest.loRaGateway.mobility initialBank 0deg
attr unit deg
par LoRaNetworkTest.loRaGateway.mobility initFromDisplayString false
par LoRaNetworkTest.loRaGateway.mobility updateFromDisplayString true
par LoRaNetworkTest.loRaGateway.LoRaGWNic.radioIn.channel typename "\"ned.IdealChannel\""
par LoRaNetworkTest.loRaGateway.LoRaGWNic.mac.upperLayerOut.channel typename "\"ned.IdealChannel\""
par LoRaNetworkTest.loRaGateway.LoRaGWNic.upperLayerIn.channel typename "\"ned.IdealChannel\""
par LoRaNetworkTest.loRaGateway.LoRaGWNic.mac typename "\"flora.LoRa.LoRaGWMac\""
par LoRaNetworkTest.loRaGateway.LoRaGWNic.mac interfaceTableModule "\"LoRaNetworkTest.loRaGateway.interfaceTable\""
par LoRaNetworkTest.loRaGateway.LoRaGWNic.mac radioModule "\"^.radio\""
par LoRaNetworkTest.loRaGateway.LoRaGWNic.mac address "\"0A-AA-00-00-00-02\""
attr mutable ""
par LoRaNetworkTest.loRaGateway.LoRaGWNic.mac queueModule "\"\""
par LoRaNetworkTest.loRaGateway.LoRaGWNic.mac maxQueueSize -1
par LoRaNetworkTest.loRaGateway.LoRaGWNic.mac prioritizeByUP false
par LoRaNetworkTest.loRaGateway.LoRaGWNic.mac useAck true
par LoRaNetworkTest.loRaGateway.LoRaGWNic.mac headerLength 8B
attr unit B
par LoRaNetworkTest.loRaGateway.LoRaGWNic.mac ackLength 8B
attr unit B
par LoRaNetworkTest.loRaGateway.LoRaGWNic.mac sifsTime 1e-05s
attr unit s
par LoRaNetworkTest.loRaGateway.LoRaGWNic.mac slotTime 2e-05s
attr unit s
par LoRaNetworkTest.loRaGateway.LoRaGWNic.mac difsTime 5e-05s
attr unit s
par LoRaNetworkTest.loRaGateway.LoRaGWNic.mac mtu 1500
par LoRaNetworkTest.loRaGateway.LoRaGWNic.mac cwMin 31
par LoRaNetworkTest.loRaGateway.LoRaGWNic.mac cwMax 1023
par LoRaNetworkTest.loRaGateway.LoRaGWNic.mac cwMulticast 31
par LoRaNetworkTest.loRaGateway.LoRaGWNic.mac retryLimit 7
scalar LoRaNetworkTest.loRaGateway.LoRaGWNic.mac GW_forwardedDown 0
scalar LoRaNetworkTest.loRaGateway.LoRaGWNic.mac GW_droppedDC 0
par LoRaNetworkTest.loRaGateway.LoRaGWNic.radio.antenna typename "\"inet.physicallayer.wireless.common.antenna.IsotropicAntenna\""
par LoRaNetworkTest.loRaGateway.LoRaGWNic.radio.antenna mobilityModule "\"^.^.^.mobility\""
par LoRaNetworkTest.loRaGateway.LoRaGWNic.radio.antenna numAntennas 1
par LoRaNetworkTest.loRaGateway.LoRaGWNic.radio.transmitter typename "\"flora.LoRaPhy.LoRaTransmitter\""
par LoRaNetworkTest.loRaGateway.LoRaGWNic.radio.transmitter preambleDuration 0.001s
attr unit s
par LoRaNetworkTest.loRaGateway.LoRaGWNic.radio.transmitter headerLength 0b
attr unit b
par LoRaNetworkTest.loRaGateway.LoRaGWNic.radio.transmitter bitrate 250000bps
attr unit bps
par LoRaNetworkTest.loRaGateway.LoRaGWNic.radio.transmitter power 0.00224W
attr unit W
par LoRaNetworkTest.loRaGateway.LoRaGWNic.radio.transmitter centerFrequency 2.45e+09Hz
attr unit Hz
par LoRaNetworkTest.loRaGateway.LoRaGWNic.radio.transmitter bandwidth 250000Hz
attr unit Hz
par LoRaNetworkTest.loRaGateway.LoRaGWNic.radio.transmitter modulation "\"LoRaModulation\""
scalar LoRaNetworkTest.loRaGateway.LoRaGWNic.radio.transmitter LoRaTransmissionCreated:count 0
attr recordingmode count
attr source LoRaTransmissionCreated
par LoRaNetworkTest.loRaGateway.LoRaGWNic.radio.receiver typename "\"flora.LoRaPhy.LoRaReceiver\""
par LoRaNetworkTest.loRaGateway.LoRaGWNic.radio.receiver snirThreshold -8dB
attr unit dB
par LoRaNetworkTest.loRaGateway.LoRaGWNic.radio.receiver snirThresholdMode "\"min\""
attr unit min,mean
par LoRaNetworkTest.loRaGateway.LoRaGWNic.radio.receiver energyDetection -110dBm
attr unit dBm
par LoRaNetworkTest.loRaGateway.LoRaGWNic.radio.receiver sensitivity -100dBm
attr unit dBm
par LoRaNetworkTest.loRaGateway.LoRaGWNic.radio.receiver centerFrequency 2.45e+09Hz
attr unit Hz
par LoRaNetworkTest.loRaGateway.LoRaGWNic.radio.receiver bandwidth 250000Hz
attr unit Hz
par LoRaNetworkTest.loRaGateway.LoRaGWNic.radio.receiver modulation "\"BPSK\""
par LoRaNetworkTest.loRaGateway.LoRaGWNic.radio.receiver alohaChannelModel false
scalar LoRaNetworkTest.loRaGateway.LoRaGWNic.radio.receiver numCollisions 0
scalar LoRaNetworkTest.loRaGateway.LoRaGWNic.radio.receiver rcvBelowSensitivity 0
scalar LoRaNetworkTest.loRaGateway.LoRaGWNic.radio.receiver LoRaReceptionCollision:count 0
attr recordingmode count
attr source LoRaReceptionCollision
par LoRaNetworkTest.loRaGateway.LoRaGWNic.radio typename "\"flora.LoRa.LoRaGWRadio\""
par LoRaNetworkTest.loRaGateway.LoRaGWNic.radio radioMediumModule "\"LoRaMedium\""
par LoRaNetworkTest.loRaGateway.LoRaGWNic.radio energySourceModule "\"\""
par LoRaNetworkTest.loRaGateway.LoRaGWNic.radio initialRadioMode "\"off\""
attr enum off,sleep,receiver,transmitter,transceiver
par LoRaNetworkTest.loRaGateway.LoRaGWNic.radio switchingTimes "\"ms 0 0 0 0 0 0 0 0 0 0 0 0 0 0 0 0 0 0 0 0 0 0 0 0 0\""
par LoRaNetworkTest.loRaGateway.LoRaGWNic.radio sendRawBytes false
par LoRaNetworkTest.loRaGateway.LoRaGWNic.radio separateTransmissionParts false
par LoRaNetworkTest.loRaGateway.LoRaGWNic.radio separateReceptionParts false
par LoRaNetworkTest.loRaGateway.LoRaGWNic.radio displayCommunicationRange false
par LoRaNetworkTest.loRaGateway.LoRaGWNic.radio displayInterferenceRange false
par LoRaNetworkTest.loRaGateway.LoRaGWNic.radio centerFrequency 2.45e+09Hz
attr unit Hz
par LoRaNetworkTest.loRaGateway.LoRaGWNic.radio bandwidth 250000Hz
attr unit Hz
par LoRaNetworkTest.loRaGateway.LoRaGWNic.radio iAmGateway true
scalar LoRaNetworkTest.loRaGateway.LoRaGWNic.radio "DER - Data Extraction Rate" -nan
scalar LoRaNetworkTest.loRaGateway.LoRaGWNic.radio LoRaGWRadioReceptionFinishedCorrect:count 0
attr recordingmode count
attr source LoRaGWRadioReceptionFinishedCorrect
scalar LoRaNetworkTest.loRaGateway.LoRaGWNic.radio LoRaGWRadioReceptionStarted:count 0
attr recordingmode count
attr source LoRaGWRadioReceptionStarted
scalar LoRaNetworkTest.loRaGateway.LoRaGWNic.radio radioMode:count 3
attr interpolationmode sample-hold
attr recordingmode count
attr source radioModeChanged
attr title "Radio mode, count"
scalar LoRaNetworkTest.loRaGateway.LoRaGWNic.radio receptionState:count 1
attr interpolationmode sample-hold
attr recordingmode count
attr source receptionStateChanged
attr title "Radio reception state, count"
scalar LoRaNetworkTest.loRaGateway.LoRaGWNic.radio transmissionState:count 1
attr interpolationmode sample-hold
attr recordingmode count
attr source transmissionStateChanged
attr title "Radio transmission state, count"
statistic LoRaNetworkTest.loRaGateway.LoRaGWNic.radio minSnir:histogram
field count 0
field mean -nan
field stddev -nan
field min -nan
field max -nan
field sum 0
field sqrsum 0
attr recordingmode histogram
attr source minimumSnir(packetSentToUpper)
attr title "Min SNIR"
bin	-inf	0
bin	0	0
bin	1	0
statistic LoRaNetworkTest.loRaGateway.LoRaGWNic.radio packetErrorRate:histogram
field count 0
field mean -nan
field stddev -nan
field min -nan
field max -nan
field sum 0
field sqrsum 0
attr recordingmode histogram
attr source packetErrorRate(packetSentToUpper)
attr title "Packet error rate"
bin	-inf	0
bin	0	0
bin	1	0
statistic LoRaNetworkTest.loRaGateway.LoRaGWNic.radio bitErrorRate:histogram
field count 0
field mean -nan
field stddev -nan
field min -nan
field max -nan
field sum 0
field sqrsum 0
attr recordingmode histogram
attr source bitErrorRate(packetSentToUpper)
attr title "Bit error rate"
bin	-inf	0
bin	0	0
bin	1	0
statistic LoRaNetworkTest.loRaGateway.LoRaGWNic.radio symbolErrorRate:histogram
field count 0
field mean -nan
field stddev -nan
field min -nan
field max -nan
field sum 0
field sqrsum 0
attr recordingmode histogram
attr source symbolErrorRate(packetSentToUpper)
attr title "Symbol error rate"
bin	-inf	0
bin	0	0
bin	1	0
par LoRaNetworkTest.loRaGateway.LoRaGWNic typename "\"flora.LoRa.LoRaGWNic\""
par LoRaNetworkTest.loRaGateway.LoRaGWNic displayStringTextFormat "\"%a (%i)\\n%m\""
par LoRaNetworkTest.loRaGateway.LoRaGWNic recordPcap false
par LoRaNetworkTest.loRaGateway.LoRaGWNic numPcapRecorders 0
par LoRaNetworkTest.loRaGateway.LoRaGWNic interfaceTableModule "\"LoRaNetworkTest.loRaGateway.interfaceTable\""
par LoRaNetworkTest.loRaGateway.LoRaGWNic energySourceModule "\"\""
par LoRaNetworkTest.loRaGateway.LoRaGWNic protocol "\"\""
scalar LoRaNetworkTest.loRaGateway.LoRaGWNic packetDropInterfaceDown:count 0
attr interpolationmode none
attr recordingmode count
attr source packetDropReasonIsInterfaceDown(packetDropped)
attr title "packet drops: interface down, count"
scalar LoRaNetworkTest.loRaGateway.LoRaGWNic packetDropInterfaceDown:sum(packetBytes) 0
attr interpolationmode none
attr recordingmode sum(packetBytes)
attr source packetDropReasonIsInterfaceDown(packetDropped)
attr title "packet drops: interface down, sum(packetBytes)"
scalar LoRaNetworkTest.loRaGateway.LoRaGWNic packetDropNoCarrier:count 0
attr interpolationmode none
attr recordingmode count
attr source packetDropReasonIsNoCarrier(packetDropped)
attr title "packet drops: no carrier, count"
scalar LoRaNetworkTest.loRaGateway.LoRaGWNic packetDropNoCarrier:sum(packetBytes) 0
attr interpolationmode none
attr recordingmode sum(packetBytes)
attr source packetDropReasonIsNoCarrier(packetDropped)
attr title "packet drops: no carrier, sum(packetBytes)"
par LoRaNetworkTest.loRaGateway.packetForwarder typename "\"flora.LoRa.PacketForwarder\""
par LoRaNetworkTest.loRaGateway.packetForwarder localPort 2000
par LoRaNetworkTest.loRaGateway.packetForwarder destAddresses "\"HospitalServer\""
par LoRaNetworkTest.loRaGateway.packetForwarder localAddress "\"\""
par LoRaNetworkTest.loRaGateway.packetForwarder destPort 1000
scalar LoRaNetworkTest.loRaGateway.packetForwarder LoRa_GW_DER -nan
scalar LoRaNetworkTest.loRaGateway.packetForwarder LoRa_GWPacketReceived:count 0
attr recordingmode count
attr source LoRa_GWPacketReceived
par LoRaNetworkTest.loRaGateway.eth[0].mac.phys$o.channel typename "\"ned.IdealChannel\""
par LoRaNetworkTest.loRaGateway.eth[0].phys$i.channel typename "\"ned.IdealChannel\""
par LoRaNetworkTest.loRaGateway.eth[0].upperLayerIn.channel typename "\"ned.IdealChannel\""
par LoRaNetworkTest.loRaGateway.eth[0].mac.upperLayerOut.channel typename "\"ned.IdealChannel\""
par LoRaNetworkTest.loRaGateway.eth[0].queue typename "\"inet.linklayer.ethernet.common.EthernetQueue\""
par LoRaNetworkTest.loRaGateway.eth[0].queue displayStringTextFormat "\"contains %p pk (%l) pushed %u\\npulled %o removed %r dropped %d\""
par LoRaNetworkTest.loRaGateway.eth[0].queue packetCapacity 1000
par LoRaNetworkTest.loRaGateway.eth[0].queue dataCapacity -1b
attr unit b
par LoRaNetworkTest.loRaGateway.eth[0].queue dropperClass "\"inet::queueing::PacketAtCollectionEndDropper\""
par LoRaNetworkTest.loRaGateway.eth[0].queue comparatorClass "\"inet::EthernetFrameTypeComparator\""
par LoRaNetworkTest.loRaGateway.eth[0].queue bufferModule "\"\""
scalar LoRaNetworkTest.loRaGateway.eth[0].queue queueLength:last nan
attr autoWarmupFilter false
attr interpolationmode sample-hold
attr recordingmode last
attr source "warmup(atomic(constant0(packetPushEnded) + count(packetPushStarted) - count(packetPulled) - count(packetRemoved) - count(packetDropped)))"
attr title "queue length, last"
attr unit pk
scalar LoRaNetworkTest.loRaGateway.eth[0].queue queueLength:max -nan
attr autoWarmupFilter false
attr interpolationmode sample-hold
attr recordingmode max
attr source "warmup(atomic(constant0(packetPushEnded) + count(packetPushStarted) - count(packetPulled) - count(packetRemoved) - count(packetDropped)))"
attr title "queue length, max"
attr unit pk
scalar LoRaNetworkTest.loRaGateway.eth[0].queue queueLength:timeavg -nan
attr autoWarmupFilter false
attr interpolationmode sample-hold
attr recordingmode timeavg
attr source "warmup(atomic(constant0(packetPushEnded) + count(packetPushStarted) - count(packetPulled) - count(packetRemoved) - count(packetDropped)))"
attr title "queue length, timeavg"
attr unit pk
scalar LoRaNetworkTest.loRaGateway.eth[0].queue queueBitLength:last nan
attr autoWarmupFilter false
attr interpolationmode sample-hold
attr recordingmode last
attr source "warmup(atomic(constant0(packetPushEnded) + sum(packetLength(packetPushStarted)) - sum(packetLength(packetPulled)) - sum(packetLength(packetRemoved)) - sum(packetLength(packetDropped))))"
attr title "queue bit length, last"
attr unit b
scalar LoRaNetworkTest.loRaGateway.eth[0].queue queueBitLength:max -nan
attr autoWarmupFilter false
attr interpolationmode sample-hold
attr recordingmode max
attr source "warmup(atomic(constant0(packetPushEnded) + sum(packetLength(packetPushStarted)) - sum(packetLength(packetPulled)) - sum(packetLength(packetRemoved)) - sum(packetLength(packetDropped))))"
attr title "queue bit length, max"
attr unit b
scalar LoRaNetworkTest.loRaGateway.eth[0].queue queueBitLength:timeavg -nan
attr autoWarmupFilter false
attr interpolationmode sample-hold
attr recordingmode timeavg
attr source "warmup(atomic(constant0(packetPushEnded) + sum(packetLength(packetPushStarted)) - sum(packetLength(packetPulled)) - sum(packetLength(packetRemoved)) - sum(packetLength(packetDropped))))"
attr title "queue bit length, timeavg"
attr unit b
statistic LoRaNetworkTest.loRaGateway.eth[0].queue queueingTime:histogram
field count 0
field mean -nan
field stddev -nan
field min -nan
field max -nan
field sum 0
field sqrsum 0
attr interpolationmode none
attr recordingmode histogram
attr source queueingTime(packetPulled)
attr title "queueing times"
attr unit s
bin	-inf	0
bin	0	0
bin	1	0
scalar LoRaNetworkTest.loRaGateway.eth[0].queue outgoingPackets:count 0
attr recordingmode count
attr source packetPulled
attr title "outgoing packets, count"
attr unit pk
scalar LoRaNetworkTest.loRaGateway.eth[0].queue outgoingPacketLengths:sum 0
attr interpolationmode none
attr recordingmode sum
attr source packetLength(packetPulled)
attr title "outgoing packet lengths, sum"
attr unit b
statistic LoRaNetworkTest.loRaGateway.eth[0].queue outgoingPacketLengths:histogram
field count 0
field mean -nan
field stddev -nan
field min -nan
field max -nan
field sum 0
field sqrsum 0
attr interpolationmode none
attr recordingmode histogram
attr source packetLength(packetPulled)
attr title "outgoing packet lengths"
attr unit b
bin	-inf	0
bin	0	0
bin	1	0
statistic LoRaNetworkTest.loRaGateway.eth[0].queue flowQueueingTime:histogram
field count 0
field mean -nan
field stddev -nan
field min -nan
field max -nan
field sum 0
field sqrsum 0
attr interpolationmode none
attr recordingmode histogram
attr source queueingTime(demuxFlow(packetPulled))
attr title "flow queueing times"
attr unit s
bin	-inf	0
bin	0	0
bin	1	0
scalar LoRaNetworkTest.loRaGateway.eth[0].queue incomingPackets:count 0
attr recordingmode count
attr source packetPushStarted
attr title "incoming packets, count"
attr unit pk
scalar LoRaNetworkTest.loRaGateway.eth[0].queue incomingPacketLengths:sum 0
attr interpolationmode none
attr recordingmode sum
attr source packetLength(packetPushStarted)
attr title "incoming packet lengths, sum"
attr unit b
statistic LoRaNetworkTest.loRaGateway.eth[0].queue incomingPacketLengths:histogram
field count 0
field mean -nan
field stddev -nan
field min -nan
field max -nan
field sum 0
field sqrsum 0
attr interpolationmode none
attr recordingmode histogram
attr source packetLength(packetPushStarted)
attr title "incoming packet lengths"
attr unit b
bin	-inf	0
bin	0	0
bin	1	0
scalar LoRaNetworkTest.loRaGateway.eth[0].queue droppedPacketsQueueOverflow:count 0
attr interpolationmode none
attr recordingmode count
attr source packetDropReasonIsQueueOverflow(packetDropped)
attr title "dropped packets: queue overflow, count"
attr unit pk
scalar LoRaNetworkTest.loRaGateway.eth[0].queue droppedPacketLengthsQueueOverflow:sum 0
attr interpolationmode none
attr recordingmode sum
attr source packetLength(packetDropReasonIsQueueOverflow(packetDropped))
attr title "dropped packet lengths: queue overflow, sum"
attr unit b
par LoRaNetworkTest.loRaGateway.eth[0].mac typename "\"inet.linklayer.ethernet.basic.EthernetMac\""
par LoRaNetworkTest.loRaGateway.eth[0].mac interfaceTableModule "\"LoRaNetworkTest.loRaGateway.interfaceTable\""
par LoRaNetworkTest.loRaGateway.eth[0].mac displayStringTextFormat "\"rate: %b\\nsent: %s, rcvd: %r\\nqueue: %q, drop: %d\""
par LoRaNetworkTest.loRaGateway.eth[0].mac sendRawBytes false
par LoRaNetworkTest.loRaGateway.eth[0].mac promiscuous false
par LoRaNetworkTest.loRaGateway.eth[0].mac duplexMode true
par LoRaNetworkTest.loRaGateway.eth[0].mac mtu 1500B
attr unit B
par LoRaNetworkTest.loRaGateway.eth[0].mac fcsMode "\"declared\""
attr enum declared,computed
par LoRaNetworkTest.loRaGateway.eth[0].mac stopOperationExtraTime -1s
attr unit s
par LoRaNetworkTest.loRaGateway.eth[0].mac stopOperationTimeout 2s
attr unit s
scalar LoRaNetworkTest.loRaGateway.eth[0].mac "simulated time" 120
scalar LoRaNetworkTest.loRaGateway.eth[0].mac full-duplex 1
scalar LoRaNetworkTest.loRaGateway.eth[0].mac "frames/sec sent" 0
scalar LoRaNetworkTest.loRaGateway.eth[0].mac "frames/sec rcvd" 0
scalar LoRaNetworkTest.loRaGateway.eth[0].mac "bits/sec sent" 0
scalar LoRaNetworkTest.loRaGateway.eth[0].mac "bits/sec rcvd" 0
scalar LoRaNetworkTest.loRaGateway.eth[0].mac "rx channel idle (%)" 100
scalar LoRaNetworkTest.loRaGateway.eth[0].mac "rx channel utilization (%)" 0
scalar LoRaNetworkTest.loRaGateway.eth[0].mac rxPausePkUnits:count 0
attr interpolationmode none
attr recordingmode count
attr title "pause units received, count"
scalar LoRaNetworkTest.loRaGateway.eth[0].mac rxPausePkUnits:sum 0
attr interpolationmode none
attr recordingmode sum
attr title "pause units received, sum"
scalar LoRaNetworkTest.loRaGateway.eth[0].mac txPausePkUnits:count 0
attr interpolationmode none
attr recordingmode count
attr title "pause units sent, count"
scalar LoRaNetworkTest.loRaGateway.eth[0].mac txPausePkUnits:sum 0
attr interpolationmode none
attr recordingmode sum
attr title "pause units sent, sum"
scalar LoRaNetworkTest.loRaGateway.eth[0].mac rxPkOk:count 0
attr interpolationmode none
attr recordingmode count
attr source rxPkOk
attr title "packets received OK, count"
scalar LoRaNetworkTest.loRaGateway.eth[0].mac rxPkOk:sum(packetBytes) 0
attr interpolationmode none
attr recordingmode sum(packetBytes)
attr source rxPkOk
attr title "packets received OK, sum(packetBytes)"
scalar LoRaNetworkTest.loRaGateway.eth[0].mac txPk:count 0
attr interpolationmode none
attr recordingmode count
attr source packetSentToLower
attr title "packets transmitted, count"
scalar LoRaNetworkTest.loRaGateway.eth[0].mac txPk:sum(packetBytes) 0
attr interpolationmode none
attr recordingmode sum(packetBytes)
attr source packetSentToLower
attr title "packets transmitted, sum(packetBytes)"
scalar LoRaNetworkTest.loRaGateway.eth[0].mac packetReceivedFromUpper:count 0
attr interpolationmode none
attr recordingmode count
attr source packetReceivedFromUpper
attr title "packet bytes from higher layer, count"
scalar LoRaNetworkTest.loRaGateway.eth[0].mac packetReceivedFromUpper:sum(packetBytes) 0
attr interpolationmode none
attr recordingmode sum(packetBytes)
attr source packetReceivedFromUpper
attr title "packet bytes from higher layer, sum(packetBytes)"
scalar LoRaNetworkTest.loRaGateway.eth[0].mac passedUpPk:count 0
attr interpolationmode none
attr recordingmode count
attr source packetSentToUpper
attr title "packets passed to higher layer, count"
scalar LoRaNetworkTest.loRaGateway.eth[0].mac passedUpPk:sum(packetBytes) 0
attr interpolationmode none
attr recordingmode sum(packetBytes)
attr source packetSentToUpper
attr title "packets passed to higher layer, sum(packetBytes)"
scalar LoRaNetworkTest.loRaGateway.eth[0].mac packetDropIncorrectlyReceived:count 0
attr interpolationmode none
attr recordingmode count
attr source packetDropReasonIsIncorrectlyReceived(packetDropped)
attr title "packet drop: incorrectly received, count"
scalar LoRaNetworkTest.loRaGateway.eth[0].mac packetDropIncorrectlyReceived:sum(packetBytes) 0
attr interpolationmode none
attr recordingmode sum(packetBytes)
attr source packetDropReasonIsIncorrectlyReceived(packetDropped)
attr title "packet drop: incorrectly received, sum(packetBytes)"
scalar LoRaNetworkTest.loRaGateway.eth[0].mac packetDropInterfaceDown:count 0
attr interpolationmode none
attr recordingmode count
attr source packetDropReasonIsInterfaceDown(packetDropped)
attr title "packet drop: interface down, count"
scalar LoRaNetworkTest.loRaGateway.eth[0].mac packetDropInterfaceDown:sum(packetBytes) 0
attr interpolationmode none
attr recordingmode sum(packetBytes)
attr source packetDropReasonIsInterfaceDown(packetDropped)
attr title "packet drop: interface down, sum(packetBytes)"
scalar LoRaNetworkTest.loRaGateway.eth[0].mac packetDropNotAddressedToUs:count 0
attr interpolationmode none
attr recordingmode count
attr source packetDropReasonIsNotAddressedToUs(packetDropped)
attr title "packet drop: not addressed to us, count"
scalar LoRaNetworkTest.loRaGateway.eth[0].mac packetDropNotAddressedToUs:sum(packetBytes) 0
attr interpolationmode none
attr recordingmode sum(packetBytes)
attr source packetDropReasonIsNotAddressedToUs(packetDropped)
attr title "packet drop: not addressed to us, sum(packetBytes)"
par LoRaNetworkTest.loRaGateway.eth[0] typename "\"inet.linklayer.ethernet.EthernetInterface\""
par LoRaNetworkTest.loRaGateway.eth[0] displayStringTextFormat "\"%a (%i)\\n%m\""
par LoRaNetworkTest.loRaGateway.eth[0] recordPcap false
par LoRaNetworkTest.loRaGateway.eth[0] numPcapRecorders 0
par LoRaNetworkTest.loRaGateway.eth[0] interfaceTableModule "\"LoRaNetworkTest.loRaGateway.interfaceTable\""
par LoRaNetworkTest.loRaGateway.eth[0] protocol "\"ethernetmac\""
par LoRaNetworkTest.loRaGateway.eth[0] address "\"0A-AA-00-00-00-03\""
attr mutable ""
par LoRaNetworkTest.loRaGateway.eth[0] duplexMode true
par LoRaNetworkTest.loRaGateway.eth[0] csmacdSupport false
par LoRaNetworkTest.loRaGateway.eth[0] bitrate 0bps
attr unit bps
par LoRaNetworkTest.loRaGateway.eth[0] fcsMode "\"declared\""
attr enum declared,computed
scalar LoRaNetworkTest.loRaGateway.eth[0] packetDropInterfaceDown:count 0
attr interpolationmode none
attr recordingmode count
attr source packetDropReasonIsInterfaceDown(packetDropped)
attr title "packet drops: interface down, count"
scalar LoRaNetworkTest.loRaGateway.eth[0] packetDropInterfaceDown:sum(packetBytes) 0
attr interpolationmode none
attr recordingmode sum(packetBytes)
attr source packetDropReasonIsInterfaceDown(packetDropped)
attr title "packet drops: interface down, sum(packetBytes)"
scalar LoRaNetworkTest.loRaGateway.eth[0] packetDropNoCarrier:count 0
attr interpolationmode none
attr recordingmode count
attr source packetDropReasonIsNoCarrier(packetDropped)
attr title "packet drops: no carrier, count"
scalar LoRaNetworkTest.loRaGateway.eth[0] packetDropNoCarrier:sum(packetBytes) 0
attr interpolationmode none
attr recordingmode sum(packetBytes)
attr source packetDropReasonIsNoCarrier(packetDropped)
attr title "packet drops: no carrier, sum(packetBytes)"
par LoRaNetworkTest.loRaGateway.udp typename "\"inet.transportlayer.udp.Udp\""
par LoRaNetworkTest.loRaGateway.udp interfaceTableModule "\"LoRaNetworkTest.loRaGateway.interfaceTable\""
par LoRaNetworkTest.loRaGateway.udp icmpModule "\"^.ipv4.icmp\""
par LoRaNetworkTest.loRaGateway.udp icmpv6Module "\"^.ipv6.icmpv6\""
par LoRaNetworkTest.loRaGateway.udp crcMode "\"declared\""
attr enum disabled,declared,computed
par LoRaNetworkTest.loRaGateway.udp defaultMulticastLoop true
scalar LoRaNetworkTest.loRaGateway.udp packetReceived:count 0
attr interpolationmode none
attr recordingmode count
attr source packetReceived
attr title "packets received, count"
scalar LoRaNetworkTest.loRaGateway.udp packetReceived:sum(packetBytes) 0
attr interpolationmode none
attr recordingmode sum(packetBytes)
attr source packetReceived
attr title "packets received, sum(packetBytes)"
scalar LoRaNetworkTest.loRaGateway.udp packetSent:count 0
attr interpolationmode none
attr recordingmode count
attr source packetSent
attr title "packets sent, count"
scalar LoRaNetworkTest.loRaGateway.udp packetSent:sum(packetBytes) 0
attr interpolationmode none
attr recordingmode sum(packetBytes)
attr source packetSent
attr title "packets sent, sum(packetBytes)"
scalar LoRaNetworkTest.loRaGateway.udp passedUpPk:count 0
attr interpolationmode none
attr recordingmode count
attr source packetSentToUpper
attr title "packets passed up, count"
scalar LoRaNetworkTest.loRaGateway.udp droppedPkWrongPort:count 0
attr interpolationmode none
attr recordingmode count
attr source packetDropReasonIsNoPortFound(packetDropped)
attr title "packets dropped (wrong port), count"
scalar LoRaNetworkTest.loRaGateway.udp droppedPkBadChecksum:count 0
attr interpolationmode none
attr recordingmode count
attr source packetDropReasonIsIncorrectlyReceived(packetDropped)
attr title "packets dropped (checksum error), count"
par LoRaNetworkTest.loRaGateway.ipv4.transportIn.channel typename "\"ned.IdealChannel\""
par LoRaNetworkTest.loRaGateway.ipv4.up.out[0].channel typename "\"ned.IdealChannel\""
par LoRaNetworkTest.loRaGateway.ipv4.lp.out[2].channel typename "\"ned.IdealChannel\""
par LoRaNetworkTest.loRaGateway.ipv4.ifIn.channel typename "\"ned.IdealChannel\""
par LoRaNetworkTest.loRaGateway.ipv4.configurator typename "\"inet.networklayer.configurator.ipv4.Ipv4NodeConfigurator\""
par LoRaNetworkTest.loRaGateway.ipv4.configurator interfaceTableModule "\"LoRaNetworkTest.loRaGateway.interfaceTable\""
par LoRaNetworkTest.loRaGateway.ipv4.configurator routingTableModule "\"LoRaNetworkTest.loRaGateway.ipv4.routingTable\""
par LoRaNetworkTest.loRaGateway.ipv4.configurator networkConfiguratorModule "\"configurator\""
par LoRaNetworkTest.loRaGateway.ipv4.configurator configureRoutingTable true
par LoRaNetworkTest.loRaGateway.ipv4.routingTable typename "\"inet.networklayer.ipv4.Ipv4RoutingTable\""
par LoRaNetworkTest.loRaGateway.ipv4.routingTable interfaceTableModule "\"LoRaNetworkTest.loRaGateway.interfaceTable\""
par LoRaNetworkTest.loRaGateway.ipv4.routingTable routerId "\"auto\""
par LoRaNetworkTest.loRaGateway.ipv4.routingTable netmaskRoutes "\"*\""
par LoRaNetworkTest.loRaGateway.ipv4.routingTable forwarding false
par LoRaNetworkTest.loRaGateway.ipv4.routingTable multicastForwarding false
par LoRaNetworkTest.loRaGateway.ipv4.routingTable useAdminDist false
par LoRaNetworkTest.loRaGateway.ipv4.routingTable routingFile "\"\""
par LoRaNetworkTest.loRaGateway.ipv4.natTable typename "\"inet.networklayer.ipv4.Ipv4NatTable\""
par LoRaNetworkTest.loRaGateway.ipv4.natTable networkProtocolModule "\"^.ip\""
par LoRaNetworkTest.loRaGateway.ipv4.natTable config "<config/> at content:1"
par LoRaNetworkTest.loRaGateway.ipv4.up typename "\"inet.common.MessageDispatcher\""
par LoRaNetworkTest.loRaGateway.ipv4.up displayStringTextFormat "\"processed %p pk (%l)\""
par LoRaNetworkTest.loRaGateway.ipv4.up forwardServiceRegistration true
par LoRaNetworkTest.loRaGateway.ipv4.up forwardProtocolRegistration true
par LoRaNetworkTest.loRaGateway.ipv4.igmp typename "\"inet.networklayer.ipv4.Igmpv2\""
par LoRaNetworkTest.loRaGateway.ipv4.igmp interfaceTableModule "\"LoRaNetworkTest.loRaGateway.interfaceTable\""
par LoRaNetworkTest.loRaGateway.ipv4.igmp routingTableModule "\"LoRaNetworkTest.loRaGateway.ipv4.routingTable\""
par LoRaNetworkTest.loRaGateway.ipv4.igmp crcMode "\"declared\""
attr enum declared,computed
par LoRaNetworkTest.loRaGateway.ipv4.igmp enabled true
par LoRaNetworkTest.loRaGateway.ipv4.igmp robustnessVariable 2
par LoRaNetworkTest.loRaGateway.ipv4.igmp queryInterval 125s
attr unit s
par LoRaNetworkTest.loRaGateway.ipv4.igmp queryResponseInterval 10s
attr unit s
par LoRaNetworkTest.loRaGateway.ipv4.igmp groupMembershipInterval 260s
attr unit s
par LoRaNetworkTest.loRaGateway.ipv4.igmp otherQuerierPresentInterval 255s
attr unit s
par LoRaNetworkTest.loRaGateway.ipv4.igmp startupQueryInterval 31.25s
attr unit s
par LoRaNetworkTest.loRaGateway.ipv4.igmp startupQueryCount 2
par LoRaNetworkTest.loRaGateway.ipv4.igmp lastMemberQueryInterval 1s
attr unit s
par LoRaNetworkTest.loRaGateway.ipv4.igmp lastMemberQueryCount 2
par LoRaNetworkTest.loRaGateway.ipv4.igmp unsolicitedReportInterval 10s
attr unit s
par LoRaNetworkTest.loRaGateway.ipv4.icmp typename "\"inet.networklayer.ipv4.Icmp\""
par LoRaNetworkTest.loRaGateway.ipv4.icmp interfaceTableModule "\"LoRaNetworkTest.loRaGateway.interfaceTable\""
par LoRaNetworkTest.loRaGateway.ipv4.icmp routingTableModule "\"LoRaNetworkTest.loRaGateway.ipv4.routingTable\""
par LoRaNetworkTest.loRaGateway.ipv4.icmp crcMode "\"declared\""
attr enum declared,computed
attr mutable ""
par LoRaNetworkTest.loRaGateway.ipv4.icmp quoteLength 8B
attr mutable ""
attr unit B
par LoRaNetworkTest.loRaGateway.ipv4.mp typename "\"inet.common.MessageDispatcher\""
par LoRaNetworkTest.loRaGateway.ipv4.mp displayStringTextFormat "\"processed %p pk (%l)\""
par LoRaNetworkTest.loRaGateway.ipv4.mp forwardServiceRegistration true
par LoRaNetworkTest.loRaGateway.ipv4.mp forwardProtocolRegistration true
par LoRaNetworkTest.loRaGateway.ipv4.ip typename "\"inet.networklayer.ipv4.Ipv4\""
par LoRaNetworkTest.loRaGateway.ipv4.ip interfaceTableModule "\"LoRaNetworkTest.loRaGateway.interfaceTable\""
par LoRaNetworkTest.loRaGateway.ipv4.ip routingTableModule "\"LoRaNetworkTest.loRaGateway.ipv4.routingTable\""
par LoRaNetworkTest.loRaGateway.ipv4.ip arpModule "\"LoRaNetworkTest.loRaGateway.ipv4.arp\""
par LoRaNetworkTest.loRaGateway.ipv4.ip icmpModule "\"LoRaNetworkTest.loRaGateway.ipv4.icmp\""
par LoRaNetworkTest.loRaGateway.ipv4.ip crcMode "\"declared\""
attr enum declared,computed
par LoRaNetworkTest.loRaGateway.ipv4.ip timeToLive 32
par LoRaNetworkTest.loRaGateway.ipv4.ip multicastTimeToLive 32
par LoRaNetworkTest.loRaGateway.ipv4.ip fragmentTimeout 60s
attr unit s
par LoRaNetworkTest.loRaGateway.ipv4.ip limitedBroadcast false
par LoRaNetworkTest.loRaGateway.ipv4.ip directBroadcastInterfaces "\"\""
scalar LoRaNetworkTest.loRaGateway.ipv4.ip packetDropAddressResolutionFailed:count 0
attr interpolationmode none
attr recordingmode count
attr source packetDropReasonIsAddressResolutionFailed(packetDropped)
attr title "packet drop: address resolution failed, count"
scalar LoRaNetworkTest.loRaGateway.ipv4.ip packetDropAddressResolutionFailed:sum(packetBytes) 0
attr interpolationmode none
attr recordingmode sum(packetBytes)
attr source packetDropReasonIsAddressResolutionFailed(packetDropped)
attr title "packet drop: address resolution failed, sum(packetBytes)"
scalar LoRaNetworkTest.loRaGateway.ipv4.ip packetDropHopLimitReached:count 0
attr interpolationmode none
attr recordingmode count
attr source packetDropReasonIsHopLimitReached(packetDropped)
attr title "packet drop: hop limit reached, count"
scalar LoRaNetworkTest.loRaGateway.ipv4.ip packetDropHopLimitReached:sum(packetBytes) 0
attr interpolationmode none
attr recordingmode sum(packetBytes)
attr source packetDropReasonIsHopLimitReached(packetDropped)
attr title "packet drop: hop limit reached, sum(packetBytes)"
scalar LoRaNetworkTest.loRaGateway.ipv4.ip packetDropForwardingDisabled:count 0
attr interpolationmode none
attr recordingmode count
attr source packetDropReasonIsForwardingDisabled(packetDropped)
attr title "packet drop: forwarding disabled, count"
scalar LoRaNetworkTest.loRaGateway.ipv4.ip packetDropForwardingDisabled:sum(packetBytes) 0
attr interpolationmode none
attr recordingmode sum(packetBytes)
attr source packetDropReasonIsForwardingDisabled(packetDropped)
attr title "packet drop: forwarding disabled, sum(packetBytes)"
scalar LoRaNetworkTest.loRaGateway.ipv4.ip packetDropNoInterfaceFound:count 0
attr interpolationmode none
attr recordingmode count
attr source packetDropReasonIsNoInterfaceFound(packetDropped)
attr title "packet drop: no interface found, count"
scalar LoRaNetworkTest.loRaGateway.ipv4.ip packetDropNoInterfaceFound:sum(packetBytes) 0
attr interpolationmode none
attr recordingmode sum(packetBytes)
attr source packetDropReasonIsNoInterfaceFound(packetDropped)
attr title "packet drop: no interface found, sum(packetBytes)"
scalar LoRaNetworkTest.loRaGateway.ipv4.ip packetDropNoRouteFound:count 0
attr interpolationmode none
attr recordingmode count
attr source packetDropReasonIsNoRouteFound(packetDropped)
attr title "packet drop: no route found, count"
scalar LoRaNetworkTest.loRaGateway.ipv4.ip packetDropNoRouteFound:sum(packetBytes) 0
attr interpolationmode none
attr recordingmode sum(packetBytes)
attr source packetDropReasonIsNoRouteFound(packetDropped)
attr title "packet drop: no route found, sum(packetBytes)"
scalar LoRaNetworkTest.loRaGateway.ipv4.ip packetDropUndefined:count 0
attr interpolationmode none
attr recordingmode count
attr source packetDropReasonIsUndefined(packetDropped)
attr title "packet drop: undefined, count"
scalar LoRaNetworkTest.loRaGateway.ipv4.ip packetDropUndefined:sum(packetBytes) 0
attr interpolationmode none
attr recordingmode sum(packetBytes)
attr source packetDropReasonIsUndefined(packetDropped)
attr title "packet drop: undefined, sum(packetBytes)"
par LoRaNetworkTest.loRaGateway.ipv4.arp typename "\"inet.networklayer.arp.ipv4.Arp\""
par LoRaNetworkTest.loRaGateway.ipv4.arp interfaceTableModule "\"LoRaNetworkTest.loRaGateway.interfaceTable\""
par LoRaNetworkTest.loRaGateway.ipv4.arp routingTableModule "\"LoRaNetworkTest.loRaGateway.ipv4.routingTable\""
par LoRaNetworkTest.loRaGateway.ipv4.arp retryTimeout 1s
attr unit s
par LoRaNetworkTest.loRaGateway.ipv4.arp retryCount 3
par LoRaNetworkTest.loRaGateway.ipv4.arp cacheTimeout 120s
attr unit s
par LoRaNetworkTest.loRaGateway.ipv4.arp proxyArpInterfaces "\"*\""
scalar LoRaNetworkTest.loRaGateway.ipv4.arp arpResolutionFailed:count 0
attr recordingmode count
attr title "ARP failed resolutions, count"
scalar LoRaNetworkTest.loRaGateway.ipv4.arp arpResolutionCompleted:count 0
attr recordingmode count
attr title "ARP completed resolutions, count"
scalar LoRaNetworkTest.loRaGateway.ipv4.arp arpResolutionInitiated:count 0
attr recordingmode count
attr title "ARP initiated resolutions, count"
scalar LoRaNetworkTest.loRaGateway.ipv4.arp arpReplySent:count 0
attr recordingmode count
attr source arpReplySent
attr title "ARP replies sent, count"
scalar LoRaNetworkTest.loRaGateway.ipv4.arp arpReplySent:sum(packetBytes) 0
attr recordingmode sum(packetBytes)
attr source arpReplySent
attr title "ARP replies sent, sum(packetBytes)"
scalar LoRaNetworkTest.loRaGateway.ipv4.arp arpRequestSent:count 0
attr recordingmode count
attr source arpRequestSent
attr title "ARP request sent, count"
scalar LoRaNetworkTest.loRaGateway.ipv4.arp arpRequestSent:sum(packetBytes) 0
attr recordingmode sum(packetBytes)
attr source arpRequestSent
attr title "ARP request sent, sum(packetBytes)"
par LoRaNetworkTest.loRaGateway.ipv4.lp typename "\"inet.common.MessageDispatcher\""
par LoRaNetworkTest.loRaGateway.ipv4.lp displayStringTextFormat "\"processed %p pk (%l)\""
par LoRaNetworkTest.loRaGateway.ipv4.lp forwardServiceRegistration true
par LoRaNetworkTest.loRaGateway.ipv4.lp forwardProtocolRegistration true
par LoRaNetworkTest.loRaGateway.ipv4 typename "\"inet.networklayer.ipv4.Ipv4NetworkLayer\""
par LoRaNetworkTest.loRaGateway.ipv4 forwarding false
par LoRaNetworkTest.loRaGateway.ipv4 multicastForwarding false
par LoRaNetworkTest.loRaGateway.ipv4 interfaceTableModule "\"LoRaNetworkTest.loRaGateway.interfaceTable\""
par LoRaNetworkTest.loRaGateway.ipv4 displayStringTextFormat "\"%i\""
par LoRaNetworkTest.loRaGateway.routingTable typename "\"inet.networklayer.ipv4.Ipv4RoutingTable\""
par LoRaNetworkTest.loRaGateway.routingTable interfaceTableModule "\"LoRaNetworkTest.loRaGateway.interfaceTable\""
par LoRaNetworkTest.loRaGateway.routingTable routerId "\"auto\""
par LoRaNetworkTest.loRaGateway.routingTable netmaskRoutes "\"*\""
par LoRaNetworkTest.loRaGateway.routingTable forwarding true
par LoRaNetworkTest.loRaGateway.routingTable multicastForwarding false
par LoRaNetworkTest.loRaGateway.routingTable useAdminDist false
par LoRaNetworkTest.loRaGateway.routingTable routingFile "\"\""
par LoRaNetworkTest.loRaGateway.ethernet typename "\"inet.linklayer.ethernet.basic.EthernetEncapsulation\""
par LoRaNetworkTest.loRaGateway.ethernet registerProtocol true
par LoRaNetworkTest.loRaGateway.ethernet interfaceTableModule "\"LoRaNetworkTest.loRaGateway.interfaceTable\""
par LoRaNetworkTest.loRaGateway.ethernet fcsMode "\"declared\""
attr enum declared,computed
par LoRaNetworkTest.loRaGateway.ethernet stopOperationExtraTime -1s
attr unit s
par LoRaNetworkTest.loRaGateway.ethernet stopOperationTimeout 2s
attr unit s
scalar LoRaNetworkTest.loRaGateway.ethernet pauseSent:count 0
attr recordingmode count
attr title "pause sent, count"
scalar LoRaNetworkTest.loRaGateway.ethernet pauseSent:sum 0
attr recordingmode sum
attr title "pause sent, sum"
scalar LoRaNetworkTest.loRaGateway.ethernet decapPk:count 0
attr interpolationmode none
attr recordingmode count
attr source decapPk
attr title "packets decapsulated, count"
scalar LoRaNetworkTest.loRaGateway.ethernet decapPk:sum(packetBytes) 0
attr interpolationmode none
attr recordingmode sum(packetBytes)
attr source decapPk
attr title "packets decapsulated, sum(packetBytes)"
scalar LoRaNetworkTest.loRaGateway.ethernet encapPk:count 0
attr interpolationmode none
attr recordingmode count
attr source encapPk
attr title "packets encapsulated, count"
scalar LoRaNetworkTest.loRaGateway.ethernet encapPk:sum(packetBytes) 0
attr interpolationmode none
attr recordingmode sum(packetBytes)
attr source encapPk
attr title "packets encapsulated, sum(packetBytes)"
par LoRaNetworkTest.loRaGateway typename "\"flora.LoraNode.LoRaGW\""
par LoRaNetworkTest.loRaGateway numEthInterfaces 0
par LoRaNetworkTest.loRaGateway numWlanInterfaces 1
par LoRaNetworkTest.loRaGateway hasIpv4 true
par LoRaNetworkTest.loRaGateway networkLayerType "\"Ipv4NetworkLayer\""
par LoRaNetworkTest.loRaGateway routingTableType "\"Ipv4RoutingTable\""
par LoRaNetworkTest.loRaGateway numUdpApps 1
par LoRaNetworkTest.loRaGateway hasUdp true
par LoRaNetworkTest.loRaGateway udpType "\"\""
par LoRaNetworkTest.LoRaMedium.propagation typename "\"inet.physicallayer.wireless.common.propagation.ConstantSpeedPropagation\""
par LoRaNetworkTest.LoRaMedium.propagation propagationSpeed 2.99792e+08mps
attr unit mps
par LoRaNetworkTest.LoRaMedium.propagation ignoreMovementDuringTransmission true
par LoRaNetworkTest.LoRaMedium.propagation ignoreMovementDuringPropagation true
par LoRaNetworkTest.LoRaMedium.propagation ignoreMovementDuringReception true
scalar LoRaNetworkTest.LoRaMedium.propagation "Arrival computation count" 0
par LoRaNetworkTest.LoRaMedium.analogModel typename "\"flora.LoRaPhy.LoRaAnalogModel\""
par LoRaNetworkTest.LoRaMedium.analogModel ignorePartialInterference false
par LoRaNetworkTest.LoRaMedium.backgroundNoise typename "\"inet.physicallayer.wireless.common.backgroundnoise.DimensionalBackgroundNoise\""
par LoRaNetworkTest.LoRaMedium.backgroundNoise gainFunctionCacheLimit 0
par LoRaNetworkTest.LoRaMedium.backgroundNoise timeGains "\"left 0s 0dB left\""
par LoRaNetworkTest.LoRaMedium.backgroundNoise timeGainsNormalization "\"\""
attr enum ,maximum,integral
par LoRaNetworkTest.LoRaMedium.backgroundNoise frequencyGains "\"left 0Hz 0dB left\""
par LoRaNetworkTest.LoRaMedium.backgroundNoise frequencyGainsNormalization "\"integral\""
attr enum ,maximum,integral
par LoRaNetworkTest.LoRaMedium.backgroundNoise power -96.616dBm
attr unit dBm
par LoRaNetworkTest.LoRaMedium.pathLoss typename "\"flora.LoRaPhy.LoRaLogNormalShadowing\""
par LoRaNetworkTest.LoRaMedium.pathLoss alpha 2
par LoRaNetworkTest.LoRaMedium.pathLoss systemLoss 0dB
attr unit dB
par LoRaNetworkTest.LoRaMedium.pathLoss d0 40m
attr unit m
par LoRaNetworkTest.LoRaMedium.pathLoss gamma 2.08
par LoRaNetworkTest.LoRaMedium.pathLoss sigma 3.57
par LoRaNetworkTest.LoRaMedium.mediumLimitCache typename "\"inet.physicallayer.wireless.common.medium.MediumLimitCache\""
par LoRaNetworkTest.LoRaMedium.mediumLimitCache centerFrequency "nan Hz"
attr unit Hz
par LoRaNetworkTest.LoRaMedium.mediumLimitCache maxSpeed "nan mps"
attr unit mps
par LoRaNetworkTest.LoRaMedium.mediumLimitCache maxTransmissionPower "nan W"
attr unit W
par LoRaNetworkTest.LoRaMedium.mediumLimitCache minInterferencePower "nan dBm"
attr unit dBm
par LoRaNetworkTest.LoRaMedium.mediumLimitCache minReceptionPower "nan dBm"
attr unit dBm
par LoRaNetworkTest.LoRaMedium.mediumLimitCache maxAntennaGain 0dB
attr unit dB
par LoRaNetworkTest.LoRaMedium.mediumLimitCache minInterferenceTime 0s
attr unit s
par LoRaNetworkTest.LoRaMedium.mediumLimitCache maxTransmissionDuration 4s
attr unit s
par LoRaNetworkTest.LoRaMedium.mediumLimitCache maxCommunicationRange "nan m"
attr unit m
par LoRaNetworkTest.LoRaMedium.mediumLimitCache maxInterferenceRange "nan m"
attr unit m
par LoRaNetworkTest.LoRaMedium.communicationCache typename "\"inet.physicallayer.wireless.common.communicationcache.VectorCommunicationCache\""
par LoRaNetworkTest.LoRaMedium typename "\"flora.LoRaPhy.LoRaMedium\""
par LoRaNetworkTest.LoRaMedium physicalEnvironmentModule "\"physicalEnvironment\""
par LoRaNetworkTest.LoRaMedium signalAnalogRepresentation "\"scalar\""
attr enum unitDisk,scalar,dimensional
par LoRaNetworkTest.LoRaMedium rangeFilter "\"\""
par LoRaNetworkTest.LoRaMedium radioModeFilter false
par LoRaNetworkTest.LoRaMedium listeningFilter false
par LoRaNetworkTest.LoRaMedium macAddressFilter false
par LoRaNetworkTest.LoRaMedium recordTransmissionLog false
par LoRaNetworkTest.LoRaMedium recordReceptionLog false
scalar LoRaNetworkTest.LoRaMedium "transmission count" 0
scalar LoRaNetworkTest.LoRaMedium "signal send count" 0
scalar LoRaNetworkTest.LoRaMedium "reception computation count" 0
scalar LoRaNetworkTest.LoRaMedium "interference computation count" 3
scalar LoRaNetworkTest.LoRaMedium "reception decision computation count" 0
scalar LoRaNetworkTest.LoRaMedium "listening decision computation count" 3
scalar LoRaNetworkTest.LoRaMedium "reception cache hit" -nan
attr unit %
scalar LoRaNetworkTest.LoRaMedium "interference cache hit" -nan
attr unit %
scalar LoRaNetworkTest.LoRaMedium "noise cache hit" -nan
attr unit %
scalar LoRaNetworkTest.LoRaMedium "snir cache hit" -nan
attr unit %
scalar LoRaNetworkTest.LoRaMedium "reception decision cache hit" -nan
attr unit %
scalar LoRaNetworkTest.LoRaMedium "reception result cache hit" -nan
attr unit %
par LoRaNetworkTest.HospitalServer.ethg$i[0].channel typename "\"ned.IdealChannel\""
par LoRaNetworkTest.HospitalServer.eth[0].phys$o.channel typename "\"ned.IdealChannel\""
par LoRaNetworkTest.HospitalServer.interfaceTable typename "\"inet.networklayer.common.InterfaceTable\""
par LoRaNetworkTest.HospitalServer.interfaceTable displayAddresses false
par LoRaNetworkTest.HospitalServer.cb typename "\"inet.common.MessageDispatcher\""
par LoRaNetworkTest.HospitalServer.cb displayStringTextFormat "\"processed %p pk (%l)\""
par LoRaNetworkTest.HospitalServer.cb forwardServiceRegistration true
par LoRaNetworkTest.HospitalServer.cb forwardProtocolRegistration true
par LoRaNetworkTest.HospitalServer.bl typename "\"inet.common.MessageDispatcher\""
par LoRaNetworkTest.HospitalServer.bl displayStringTextFormat "\"processed %p pk (%l)\""
par LoRaNetworkTest.HospitalServer.bl forwardServiceRegistration true
par LoRaNetworkTest.HospitalServer.bl forwardProtocolRegistration true
par LoRaNetworkTest.HospitalServer.ethernet typename "\"inet.linklayer.ethernet.basic.EthernetEncapsulation\""
par LoRaNetworkTest.HospitalServer.ethernet registerProtocol true
par LoRaNetworkTest.HospitalServer.ethernet interfaceTableModule "\"LoRaNetworkTest.HospitalServer.interfaceTable\""
par LoRaNetworkTest.HospitalServer.ethernet fcsMode "\"declared\""
attr enum declared,computed
par LoRaNetworkTest.HospitalServer.ethernet stopOperationExtraTime -1s
attr unit s
par LoRaNetworkTest.HospitalServer.ethernet stopOperationTimeout 2s
attr unit s
scalar LoRaNetworkTest.HospitalServer.ethernet pauseSent:count 0
attr recordingmode count
attr title "pause sent, count"
scalar LoRaNetworkTest.HospitalServer.ethernet pauseSent:sum 0
attr recordingmode sum
attr title "pause sent, sum"
scalar LoRaNetworkTest.HospitalServer.ethernet decapPk:count 0
attr interpolationmode none
attr recordingmode count
attr source decapPk
attr title "packets decapsulated, count"
scalar LoRaNetworkTest.HospitalServer.ethernet decapPk:sum(packetBytes) 0
attr interpolationmode none
attr recordingmode sum(packetBytes)
attr source decapPk
attr title "packets decapsulated, sum(packetBytes)"
scalar LoRaNetworkTest.HospitalServer.ethernet encapPk:count 0
attr interpolationmode none
attr recordingmode count
attr source encapPk
attr title "packets encapsulated, count"
scalar LoRaNetworkTest.HospitalServer.ethernet encapPk:sum(packetBytes) 0
attr interpolationmode none
attr recordingmode sum(packetBytes)
attr source encapPk
attr title "packets encapsulated, sum(packetBytes)"
par LoRaNetworkTest.HospitalServer.li typename "\"inet.common.MessageDispatcher\""
par LoRaNetworkTest.HospitalServer.li displayStringTextFormat "\"processed %p pk (%l)\""
par LoRaNetworkTest.HospitalServer.li forwardServiceRegistration true
par LoRaNetworkTest.HospitalServer.li forwardProtocolRegistration true
par LoRaNetworkTest.HospitalServer.lo[0].upperLayerIn.channel typename "\"ned.IdealChannel\""
par LoRaNetworkTest.HospitalServer.lo[0].lo.upperLayerOut.channel typename "\"ned.IdealChannel\""
par LoRaNetworkTest.HospitalServer.lo[0].lo typename "\"inet.linklayer.loopback.Loopback\""
par LoRaNetworkTest.HospitalServer.lo[0].lo interfaceTableModule "\"LoRaNetworkTest.HospitalServer.interfaceTable\""
par LoRaNetworkTest.HospitalServer.lo[0].lo mtu 4470B
attr unit B
scalar LoRaNetworkTest.HospitalServer.lo[0].lo rcvdPkFromHl:count 0
attr interpolationmode none
attr recordingmode count
attr source packetReceivedFromUpper
attr title "packets received from higher layer, count"
scalar LoRaNetworkTest.HospitalServer.lo[0].lo rcvdPkFromHl:sum(packetBytes) 0
attr interpolationmode none
attr recordingmode sum(packetBytes)
attr source packetReceivedFromUpper
attr title "packets received from higher layer, sum(packetBytes)"
scalar LoRaNetworkTest.HospitalServer.lo[0].lo passedUpPk:count 0
attr interpolationmode none
attr recordingmode count
attr source packetSentToUpper
attr title "packets passed to higher layer, count"
scalar LoRaNetworkTest.HospitalServer.lo[0].lo passedUpPk:sum(packetBytes) 0
attr interpolationmode none
attr recordingmode sum(packetBytes)
attr source packetSentToUpper
attr title "packets passed to higher layer, sum(packetBytes)"
par LoRaNetworkTest.HospitalServer.lo[0] typename "\"inet.linklayer.loopback.LoopbackInterface\""
par LoRaNetworkTest.HospitalServer.lo[0] displayStringTextFormat "\"%a (%i)\\n%m\""
par LoRaNetworkTest.HospitalServer.lo[0] recordPcap false
par LoRaNetworkTest.HospitalServer.lo[0] numPcapRecorders 0
par LoRaNetworkTest.HospitalServer.lo[0] interfaceTableModule "\"LoRaNetworkTest.HospitalServer.interfaceTable\""
scalar LoRaNetworkTest.HospitalServer.lo[0] packetDropInterfaceDown:count 0
attr interpolationmode none
attr recordingmode count
attr source packetDropReasonIsInterfaceDown(packetDropped)
attr title "packet drops: interface down, count"
scalar LoRaNetworkTest.HospitalServer.lo[0] packetDropInterfaceDown:sum(packetBytes) 0
attr interpolationmode none
attr recordingmode sum(packetBytes)
attr source packetDropReasonIsInterfaceDown(packetDropped)
attr title "packet drops: interface down, sum(packetBytes)"
scalar LoRaNetworkTest.HospitalServer.lo[0] packetDropNoCarrier:count 0
attr interpolationmode none
attr recordingmode count
attr source packetDropReasonIsNoCarrier(packetDropped)
attr title "packet drops: no carrier, count"
scalar LoRaNetworkTest.HospitalServer.lo[0] packetDropNoCarrier:sum(packetBytes) 0
attr interpolationmode none
attr recordingmode sum(packetBytes)
attr source packetDropReasonIsNoCarrier(packetDropped)
attr title "packet drops: no carrier, sum(packetBytes)"
par LoRaNetworkTest.HospitalServer.eth[0].mac.phys$o.channel typename "\"ned.IdealChannel\""
par LoRaNetworkTest.HospitalServer.eth[0].phys$i.channel typename "\"ned.IdealChannel\""
par LoRaNetworkTest.HospitalServer.eth[0].upperLayerIn.channel typename "\"ned.IdealChannel\""
par LoRaNetworkTest.HospitalServer.eth[0].mac.upperLayerOut.channel typename "\"ned.IdealChannel\""
par LoRaNetworkTest.HospitalServer.eth[0].queue typename "\"inet.linklayer.ethernet.common.EthernetQueue\""
par LoRaNetworkTest.HospitalServer.eth[0].queue displayStringTextFormat "\"contains %p pk (%l) pushed %u\\npulled %o removed %r dropped %d\""
par LoRaNetworkTest.HospitalServer.eth[0].queue packetCapacity 1000
par LoRaNetworkTest.HospitalServer.eth[0].queue dataCapacity -1b
attr unit b
par LoRaNetworkTest.HospitalServer.eth[0].queue dropperClass "\"inet::queueing::PacketAtCollectionEndDropper\""
par LoRaNetworkTest.HospitalServer.eth[0].queue comparatorClass "\"inet::EthernetFrameTypeComparator\""
par LoRaNetworkTest.HospitalServer.eth[0].queue bufferModule "\"\""
scalar LoRaNetworkTest.HospitalServer.eth[0].queue queueLength:last nan
attr autoWarmupFilter false
attr interpolationmode sample-hold
attr recordingmode last
attr source "warmup(atomic(constant0(packetPushEnded) + count(packetPushStarted) - count(packetPulled) - count(packetRemoved) - count(packetDropped)))"
attr title "queue length, last"
attr unit pk
scalar LoRaNetworkTest.HospitalServer.eth[0].queue queueLength:max -nan
attr autoWarmupFilter false
attr interpolationmode sample-hold
attr recordingmode max
[...]
attr interpolationmode none
attr recordingmode count
attr source packetDropReasonIsQueueOverflow(packetDropped)
attr title "dropped packets: queue overflow, count"
attr unit pk
scalar LoRaNetworkTest.gwRouter.eth[1].queue droppedPacketLengthsQueueOverflow:sum 0
attr interpolationmode none
attr recordingmode sum
attr source packetLength(packetDropReasonIsQueueOverflow(packetDropped))
attr title "dropped packet lengths: queue overflow, sum"
attr unit b
par LoRaNetworkTest.gwRouter.eth[1].mac typename "\"inet.linklayer.ethernet.basic.EthernetMac\""
par LoRaNetworkTest.gwRouter.eth[1].mac interfaceTableModule "\"LoRaNetworkTest.gwRouter.interfaceTable\""
par LoRaNetworkTest.gwRouter.eth[1].mac displayStringTextFormat "\"rate: %b\\nsent: %s, rcvd: %r\\nqueue: %q, drop: %d\""
par LoRaNetworkTest.gwRouter.eth[1].mac sendRawBytes false
par LoRaNetworkTest.gwRouter.eth[1].mac promiscuous false
par LoRaNetworkTest.gwRouter.eth[1].mac duplexMode true
par LoRaNetworkTest.gwRouter.eth[1].mac mtu 1500B
attr unit B
par LoRaNetworkTest.gwRouter.eth[1].mac fcsMode "\"declared\""
attr enum declared,computed
par LoRaNetworkTest.gwRouter.eth[1].mac stopOperationExtraTime -1s
attr unit s
par LoRaNetworkTest.gwRouter.eth[1].mac stopOperationTimeout 2s
attr unit s
scalar LoRaNetworkTest.gwRouter.eth[1].mac "simulated time" 120
scalar LoRaNetworkTest.gwRouter.eth[1].mac full-duplex 1
scalar LoRaNetworkTest.gwRouter.eth[1].mac "frames/sec sent" 0
scalar LoRaNetworkTest.gwRouter.eth[1].mac "frames/sec rcvd" 0
scalar LoRaNetworkTest.gwRouter.eth[1].mac "bits/sec sent" 0
scalar LoRaNetworkTest.gwRouter.eth[1].mac "bits/sec rcvd" 0
scalar LoRaNetworkTest.gwRouter.eth[1].mac "rx channel idle (%)" 100
scalar LoRaNetworkTest.gwRouter.eth[1].mac "rx channel utilization (%)" 0
scalar LoRaNetworkTest.gwRouter.eth[1].mac rxPausePkUnits:count 0
attr interpolationmode none
attr recordingmode count
attr title "pause units received, count"
scalar LoRaNetworkTest.gwRouter.eth[1].mac rxPausePkUnits:sum 0
attr interpolationmode none
attr recordingmode sum
attr title "pause units received, sum"
scalar LoRaNetworkTest.gwRouter.eth[1].mac txPausePkUnits:count 0
attr interpolationmode none
attr recordingmode count
attr title "pause units sent, count"
scalar LoRaNetworkTest.gwRouter.eth[1].mac txPausePkUnits:sum 0
attr interpolationmode none
attr recordingmode sum
attr title "pause units sent, sum"
scalar LoRaNetworkTest.gwRouter.eth[1].mac rxPkOk:count 0
attr interpolationmode none
attr recordingmode count
attr source rxPkOk
attr title "packets received OK, count"
scalar LoRaNetworkTest.gwRouter.eth[1].mac rxPkOk:sum(packetBytes) 0
attr interpolationmode none
attr recordingmode sum(packetBytes)
attr source rxPkOk
attr title "packets received OK, sum(packetBytes)"
scalar LoRaNetworkTest.gwRouter.eth[1].mac txPk:count 0
attr interpolationmode none
attr recordingmode count
attr source packetSentToLower
attr title "packets transmitted, count"
scalar LoRaNetworkTest.gwRouter.eth[1].mac txPk:sum(packetBytes) 0
attr interpolationmode none
attr recordingmode sum(packetBytes)
attr source packetSentToLower
attr title "packets transmitted, sum(packetBytes)"
scalar LoRaNetworkTest.gwRouter.eth[1].mac packetReceivedFromUpper:count 0
attr interpolationmode none
attr recordingmode count
attr source packetReceivedFromUpper
attr title "packet bytes from higher layer, count"
scalar LoRaNetworkTest.gwRouter.eth[1].mac packetReceivedFromUpper:sum(packetBytes) 0
attr interpolationmode none
attr recordingmode sum(packetBytes)
attr source packetReceivedFromUpper
attr title "packet bytes from higher layer, sum(packetBytes)"
scalar LoRaNetworkTest.gwRouter.eth[1].mac passedUpPk:count 0
attr interpolationmode none
attr recordingmode count
attr source packetSentToUpper
attr title "packets passed to higher layer, count"
scalar LoRaNetworkTest.gwRouter.eth[1].mac passedUpPk:sum(packetBytes) 0
attr interpolationmode none
attr recordingmode sum(packetBytes)
attr source packetSentToUpper
attr title "packets passed to higher layer, sum(packetBytes)"
scalar LoRaNetworkTest.gwRouter.eth[1].mac packetDropIncorrectlyReceived:count 0
attr interpolationmode none
attr recordingmode count
attr source packetDropReasonIsIncorrectlyReceived(packetDropped)
attr title "packet drop: incorrectly received, count"
scalar LoRaNetworkTest.gwRouter.eth[1].mac packetDropIncorrectlyReceived:sum(packetBytes) 0
attr interpolationmode none
attr recordingmode sum(packetBytes)
attr source packetDropReasonIsIncorrectlyReceived(packetDropped)
attr title "packet drop: incorrectly received, sum(packetBytes)"
scalar LoRaNetworkTest.gwRouter.eth[1].mac packetDropInterfaceDown:count 0
attr interpolationmode none
attr recordingmode count
attr source packetDropReasonIsInterfaceDown(packetDropped)
attr title "packet drop: interface down, count"
scalar LoRaNetworkTest.gwRouter.eth[1].mac packetDropInterfaceDown:sum(packetBytes) 0
attr interpolationmode none
attr recordingmode sum(packetBytes)
attr source packetDropReasonIsInterfaceDown(packetDropped)
attr title "packet drop: interface down, sum(packetBytes)"
scalar LoRaNetworkTest.gwRouter.eth[1].mac packetDropNotAddressedToUs:count 0
attr interpolationmode none
attr recordingmode count
attr source packetDropReasonIsNotAddressedToUs(packetDropped)
attr title "packet drop: not addressed to us, count"
scalar LoRaNetworkTest.gwRouter.eth[1].mac packetDropNotAddressedToUs:sum(packetBytes) 0
attr interpolationmode none
attr recordingmode sum(packetBytes)
attr source packetDropReasonIsNotAddressedToUs(packetDropped)
attr title "packet drop: not addressed to us, sum(packetBytes)"
par LoRaNetworkTest.gwRouter.eth[1] typename "\"inet.linklayer.ethernet.EthernetInterface\""
par LoRaNetworkTest.gwRouter.eth[1] displayStringTextFormat "\"%a (%i)\\n%m\""
par LoRaNetworkTest.gwRouter.eth[1] recordPcap false
par LoRaNetworkTest.gwRouter.eth[1] numPcapRecorders 0
par LoRaNetworkTest.gwRouter.eth[1] interfaceTableModule "\"LoRaNetworkTest.gwRouter.interfaceTable\""
par LoRaNetworkTest.gwRouter.eth[1] protocol "\"ethernetmac\""
par LoRaNetworkTest.gwRouter.eth[1] address "\"0A-AA-00-00-00-06\""
attr mutable ""
par LoRaNetworkTest.gwRouter.eth[1] duplexMode true
par LoRaNetworkTest.gwRouter.eth[1] csmacdSupport false
par LoRaNetworkTest.gwRouter.eth[1] bitrate 0bps
attr unit bps
par LoRaNetworkTest.gwRouter.eth[1] fcsMode "\"declared\""
attr enum declared,computed
scalar LoRaNetworkTest.gwRouter.eth[1] packetDropInterfaceDown:count 0
attr interpolationmode none
attr recordingmode count
attr source packetDropReasonIsInterfaceDown(packetDropped)
attr title "packet drops: interface down, count"
scalar LoRaNetworkTest.gwRouter.eth[1] packetDropInterfaceDown:sum(packetBytes) 0
attr interpolationmode none
attr recordingmode sum(packetBytes)
attr source packetDropReasonIsInterfaceDown(packetDropped)
attr title "packet drops: interface down, sum(packetBytes)"
scalar LoRaNetworkTest.gwRouter.eth[1] packetDropNoCarrier:count 0
attr interpolationmode none
attr recordingmode count
attr source packetDropReasonIsNoCarrier(packetDropped)
attr title "packet drops: no carrier, count"
scalar LoRaNetworkTest.gwRouter.eth[1] packetDropNoCarrier:sum(packetBytes) 0
attr interpolationmode none
attr recordingmode sum(packetBytes)
attr source packetDropReasonIsNoCarrier(packetDropped)
attr title "packet drops: no carrier, sum(packetBytes)"
par LoRaNetworkTest.gwRouter.ipv4.transportIn.channel typename "\"ned.IdealChannel\""
par LoRaNetworkTest.gwRouter.ipv4.up.out[0].channel typename "\"ned.IdealChannel\""
par LoRaNetworkTest.gwRouter.ipv4.lp.out[2].channel typename "\"ned.IdealChannel\""
par LoRaNetworkTest.gwRouter.ipv4.ifIn.channel typename "\"ned.IdealChannel\""
par LoRaNetworkTest.gwRouter.ipv4.configurator typename "\"inet.networklayer.configurator.ipv4.Ipv4NodeConfigurator\""
par LoRaNetworkTest.gwRouter.ipv4.configurator interfaceTableModule "\"LoRaNetworkTest.gwRouter.interfaceTable\""
par LoRaNetworkTest.gwRouter.ipv4.configurator routingTableModule "\"LoRaNetworkTest.gwRouter.ipv4.routingTable\""
par LoRaNetworkTest.gwRouter.ipv4.configurator networkConfiguratorModule "\"configurator\""
par LoRaNetworkTest.gwRouter.ipv4.configurator configureRoutingTable true
par LoRaNetworkTest.gwRouter.ipv4.routingTable typename "\"inet.networklayer.ipv4.Ipv4RoutingTable\""
par LoRaNetworkTest.gwRouter.ipv4.routingTable interfaceTableModule "\"LoRaNetworkTest.gwRouter.interfaceTable\""
par LoRaNetworkTest.gwRouter.ipv4.routingTable routerId "\"auto\""
par LoRaNetworkTest.gwRouter.ipv4.routingTable netmaskRoutes "\"*\""
par LoRaNetworkTest.gwRouter.ipv4.routingTable forwarding true
par LoRaNetworkTest.gwRouter.ipv4.routingTable multicastForwarding false
par LoRaNetworkTest.gwRouter.ipv4.routingTable useAdminDist false
par LoRaNetworkTest.gwRouter.ipv4.routingTable routingFile "\"\""
par LoRaNetworkTest.gwRouter.ipv4.natTable typename "\"inet.networklayer.ipv4.Ipv4NatTable\""
par LoRaNetworkTest.gwRouter.ipv4.natTable networkProtocolModule "\"^.ip\""
par LoRaNetworkTest.gwRouter.ipv4.natTable config "<config/> at content:1"
par LoRaNetworkTest.gwRouter.ipv4.up typename "\"inet.common.MessageDispatcher\""
par LoRaNetworkTest.gwRouter.ipv4.up displayStringTextFormat "\"processed %p pk (%l)\""
par LoRaNetworkTest.gwRouter.ipv4.up forwardServiceRegistration true
par LoRaNetworkTest.gwRouter.ipv4.up forwardProtocolRegistration true
par LoRaNetworkTest.gwRouter.ipv4.igmp typename "\"inet.networklayer.ipv4.Igmpv2\""
par LoRaNetworkTest.gwRouter.ipv4.igmp interfaceTableModule "\"LoRaNetworkTest.gwRouter.interfaceTable\""
par LoRaNetworkTest.gwRouter.ipv4.igmp routingTableModule "\"LoRaNetworkTest.gwRouter.ipv4.routingTable\""
par LoRaNetworkTest.gwRouter.ipv4.igmp crcMode "\"declared\""
attr enum declared,computed
par LoRaNetworkTest.gwRouter.ipv4.igmp enabled true
par LoRaNetworkTest.gwRouter.ipv4.igmp robustnessVariable 2
par LoRaNetworkTest.gwRouter.ipv4.igmp queryInterval 125s
attr unit s
par LoRaNetworkTest.gwRouter.ipv4.igmp queryResponseInterval 10s
attr unit s
par LoRaNetworkTest.gwRouter.ipv4.igmp groupMembershipInterval 260s
attr unit s
par LoRaNetworkTest.gwRouter.ipv4.igmp otherQuerierPresentInterval 255s
attr unit s
par LoRaNetworkTest.gwRouter.ipv4.igmp startupQueryInterval 31.25s
attr unit s
par LoRaNetworkTest.gwRouter.ipv4.igmp startupQueryCount 2
par LoRaNetworkTest.gwRouter.ipv4.igmp lastMemberQueryInterval 1s
attr unit s
par LoRaNetworkTest.gwRouter.ipv4.igmp lastMemberQueryCount 2
par LoRaNetworkTest.gwRouter.ipv4.igmp unsolicitedReportInterval 10s
attr unit s
par LoRaNetworkTest.gwRouter.ipv4.icmp typename "\"inet.networklayer.ipv4.Icmp\""
par LoRaNetworkTest.gwRouter.ipv4.icmp interfaceTableModule "\"LoRaNetworkTest.gwRouter.interfaceTable\""
par LoRaNetworkTest.gwRouter.ipv4.icmp routingTableModule "\"LoRaNetworkTest.gwRouter.ipv4.routingTable\""
par LoRaNetworkTest.gwRouter.ipv4.icmp crcMode "\"declared\""
attr enum declared,computed
attr mutable ""
par LoRaNetworkTest.gwRouter.ipv4.icmp quoteLength 8B
attr mutable ""
attr unit B
par LoRaNetworkTest.gwRouter.ipv4.mp typename "\"inet.common.MessageDispatcher\""
par LoRaNetworkTest.gwRouter.ipv4.mp displayStringTextFormat "\"processed %p pk (%l)\""
par LoRaNetworkTest.gwRouter.ipv4.mp forwardServiceRegistration true
par LoRaNetworkTest.gwRouter.ipv4.mp forwardProtocolRegistration true
par LoRaNetworkTest.gwRouter.ipv4.ip typename "\"inet.networklayer.ipv4.Ipv4\""
par LoRaNetworkTest.gwRouter.ipv4.ip interfaceTableModule "\"LoRaNetworkTest.gwRouter.interfaceTable\""
par LoRaNetworkTest.gwRouter.ipv4.ip routingTableModule "\"LoRaNetworkTest.gwRouter.ipv4.routingTable\""
par LoRaNetworkTest.gwRouter.ipv4.ip arpModule "\"LoRaNetworkTest.gwRouter.ipv4.arp\""
par LoRaNetworkTest.gwRouter.ipv4.ip icmpModule "\"LoRaNetworkTest.gwRouter.ipv4.icmp\""
par LoRaNetworkTest.gwRouter.ipv4.ip crcMode "\"declared\""
attr enum declared,computed
par LoRaNetworkTest.gwRouter.ipv4.ip timeToLive 32
par LoRaNetworkTest.gwRouter.ipv4.ip multicastTimeToLive 32
par LoRaNetworkTest.gwRouter.ipv4.ip fragmentTimeout 60s
attr unit s
par LoRaNetworkTest.gwRouter.ipv4.ip limitedBroadcast false
par LoRaNetworkTest.gwRouter.ipv4.ip directBroadcastInterfaces "\"\""
scalar LoRaNetworkTest.gwRouter.ipv4.ip packetDropAddressResolutionFailed:count 0
attr interpolationmode none
attr recordingmode count
attr source packetDropReasonIsAddressResolutionFailed(packetDropped)
attr title "packet drop: address resolution failed, count"
scalar LoRaNetworkTest.gwRouter.ipv4.ip packetDropAddressResolutionFailed:sum(packetBytes) 0
attr interpolationmode none
attr recordingmode sum(packetBytes)
attr source packetDropReasonIsAddressResolutionFailed(packetDropped)
attr title "packet drop: address resolution failed, sum(packetBytes)"
scalar LoRaNetworkTest.gwRouter.ipv4.ip packetDropHopLimitReached:count 0
attr interpolationmode none
attr recordingmode count
attr source packetDropReasonIsHopLimitReached(packetDropped)
attr title "packet drop: hop limit reached, count"
scalar LoRaNetworkTest.gwRouter.ipv4.ip packetDropHopLimitReached:sum(packetBytes) 0
attr interpolationmode none
attr recordingmode sum(packetBytes)
attr source packetDropReasonIsHopLimitReached(packetDropped)
attr title "packet drop: hop limit reached, sum(packetBytes)"
scalar LoRaNetworkTest.gwRouter.ipv4.ip packetDropForwardingDisabled:count 0
attr interpolationmode none
attr recordingmode count
attr source packetDropReasonIsForwardingDisabled(packetDropped)
attr title "packet drop: forwarding disabled, count"
scalar LoRaNetworkTest.gwRouter.ipv4.ip packetDropForwardingDisabled:sum(packetBytes) 0
attr interpolationmode none
attr recordingmode sum(packetBytes)
attr source packetDropReasonIsForwardingDisabled(packetDropped)
attr title "packet drop: forwarding disabled, sum(packetBytes)"
scalar LoRaNetworkTest.gwRouter.ipv4.ip packetDropNoInterfaceFound:count 0
attr interpolationmode none
attr recordingmode count
attr source packetDropReasonIsNoInterfaceFound(packetDropped)
attr title "packet drop: no interface found, count"
scalar LoRaNetworkTest.gwRouter.ipv4.ip packetDropNoInterfaceFound:sum(packetBytes) 0
attr interpolationmode none
attr recordingmode sum(packetBytes)
attr source packetDropReasonIsNoInterfaceFound(packetDropped)
attr title "packet drop: no interface found, sum(packetBytes)"
scalar LoRaNetworkTest.gwRouter.ipv4.ip packetDropNoRouteFound:count 0
attr interpolationmode none
attr recordingmode count
attr source packetDropReasonIsNoRouteFound(packetDropped)
attr title "packet drop: no route found, count"
scalar LoRaNetworkTest.gwRouter.ipv4.ip packetDropNoRouteFound:sum(packetBytes) 0
attr interpolationmode none
attr recordingmode sum(packetBytes)
attr source packetDropReasonIsNoRouteFound(packetDropped)
attr title "packet drop: no route found, sum(packetBytes)"
scalar LoRaNetworkTest.gwRouter.ipv4.ip packetDropUndefined:count 0
attr interpolationmode none
attr recordingmode count
attr source packetDropReasonIsUndefined(packetDropped)
attr title "packet drop: undefined, count"
scalar LoRaNetworkTest.gwRouter.ipv4.ip packetDropUndefined:sum(packetBytes) 0
attr interpolationmode none
attr recordingmode sum(packetBytes)
attr source packetDropReasonIsUndefined(packetDropped)
attr title "packet drop: undefined, sum(packetBytes)"
par LoRaNetworkTest.gwRouter.ipv4.arp typename "\"inet.networklayer.arp.ipv4.Arp\""
par LoRaNetworkTest.gwRouter.ipv4.arp interfaceTableModule "\"LoRaNetworkTest.gwRouter.interfaceTable\""
par LoRaNetworkTest.gwRouter.ipv4.arp routingTableModule "\"LoRaNetworkTest.gwRouter.ipv4.routingTable\""
par LoRaNetworkTest.gwRouter.ipv4.arp retryTimeout 1s
attr unit s
par LoRaNetworkTest.gwRouter.ipv4.arp retryCount 3
par LoRaNetworkTest.gwRouter.ipv4.arp cacheTimeout 120s
attr unit s
par LoRaNetworkTest.gwRouter.ipv4.arp proxyArpInterfaces "\"*\""
scalar LoRaNetworkTest.gwRouter.ipv4.arp arpResolutionFailed:count 0
attr recordingmode count
attr title "ARP failed resolutions, count"
scalar LoRaNetworkTest.gwRouter.ipv4.arp arpResolutionCompleted:count 0
attr recordingmode count
attr title "ARP completed resolutions, count"
scalar LoRaNetworkTest.gwRouter.ipv4.arp arpResolutionInitiated:count 0
attr recordingmode count
attr title "ARP initiated resolutions, count"
scalar LoRaNetworkTest.gwRouter.ipv4.arp arpReplySent:count 0
attr recordingmode count
attr source arpReplySent
attr title "ARP replies sent, count"
scalar LoRaNetworkTest.gwRouter.ipv4.arp arpReplySent:sum(packetBytes) 0
attr recordingmode sum(packetBytes)
attr source arpReplySent
attr title "ARP replies sent, sum(packetBytes)"
scalar LoRaNetworkTest.gwRouter.ipv4.arp arpRequestSent:count 0
attr recordingmode count
attr source arpRequestSent
attr title "ARP request sent, count"
scalar LoRaNetworkTest.gwRouter.ipv4.arp arpRequestSent:sum(packetBytes) 0
attr recordingmode sum(packetBytes)
attr source arpRequestSent
attr title "ARP request sent, sum(packetBytes)"
par LoRaNetworkTest.gwRouter.ipv4.lp typename "\"inet.common.MessageDispatcher\""
par LoRaNetworkTest.gwRouter.ipv4.lp displayStringTextFormat "\"processed %p pk (%l)\""
par LoRaNetworkTest.gwRouter.ipv4.lp forwardServiceRegistration true
par LoRaNetworkTest.gwRouter.ipv4.lp forwardProtocolRegistration true
par LoRaNetworkTest.gwRouter.ipv4 typename "\"inet.networklayer.ipv4.Ipv4NetworkLayer\""
par LoRaNetworkTest.gwRouter.ipv4 forwarding true
par LoRaNetworkTest.gwRouter.ipv4 multicastForwarding false
par LoRaNetworkTest.gwRouter.ipv4 interfaceTableModule "\"LoRaNetworkTest.gwRouter.interfaceTable\""
par LoRaNetworkTest.gwRouter.ipv4 displayStringTextFormat "\"%i\""
par LoRaNetworkTest.gwRouter.nl typename "\"inet.common.MessageDispatcher\""
par LoRaNetworkTest.gwRouter.nl displayStringTextFormat "\"processed %p pk (%l)\""
par LoRaNetworkTest.gwRouter.nl forwardServiceRegistration true
par LoRaNetworkTest.gwRouter.nl forwardProtocolRegistration true
par LoRaNetworkTest.gwRouter.tn typename "\"inet.common.MessageDispatcher\""
par LoRaNetworkTest.gwRouter.tn displayStringTextFormat "\"processed %p pk (%l)\""
par LoRaNetworkTest.gwRouter.tn forwardServiceRegistration true
par LoRaNetworkTest.gwRouter.tn forwardProtocolRegistration true
par LoRaNetworkTest.gwRouter.at typename "\"inet.common.MessageDispatcher\""
par LoRaNetworkTest.gwRouter.at displayStringTextFormat "\"processed %p pk (%l)\""
par LoRaNetworkTest.gwRouter.at forwardServiceRegistration true
par LoRaNetworkTest.gwRouter.at forwardProtocolRegistration true
par LoRaNetworkTest.gwRouter typename "\"inet.node.inet.Router\""
par LoRaNetworkTest.gwRouter hasStatus false
par LoRaNetworkTest.gwRouter osgModel "\"\""
par LoRaNetworkTest.gwRouter osgModelColor "\"\""
par LoRaNetworkTest.gwRouter canvasImage "\"\""
par LoRaNetworkTest.gwRouter canvasImageColor "\"\""
par LoRaNetworkTest.gwRouter recordPcap false
par LoRaNetworkTest.gwRouter numPcapRecorders 0
par LoRaNetworkTest.gwRouter numLoInterfaces 1
par LoRaNetworkTest.gwRouter numWlanInterfaces 0
par LoRaNetworkTest.gwRouter numEthInterfaces 0
par LoRaNetworkTest.gwRouter numPppInterfaces 0
par LoRaNetworkTest.gwRouter numTunInterfaces 0
par LoRaNetworkTest.gwRouter numVirtInterfaces 0
par LoRaNetworkTest.gwRouter fcsMode "\"declared\""
attr enum declared,computed
par LoRaNetworkTest.gwRouter hasIpv4 true
par LoRaNetworkTest.gwRouter hasIpv6 false
par LoRaNetworkTest.gwRouter hasGn false
par LoRaNetworkTest.gwRouter forwarding true
par LoRaNetworkTest.gwRouter multicastForwarding false
par LoRaNetworkTest.gwRouter hasUdp false
par LoRaNetworkTest.gwRouter hasTcp false
par LoRaNetworkTest.gwRouter hasSctp false
par LoRaNetworkTest.gwRouter numApps 0
par LoRaNetworkTest.gwRouter hasEigrp false
par LoRaNetworkTest.gwRouter hasOspf false
par LoRaNetworkTest.gwRouter hasRip false
par LoRaNetworkTest.gwRouter hasBgp false
par LoRaNetworkTest.gwRouter hasPim false
par LoRaNetworkTest.gwRouter hasDhcp false
par LoRaNetworkTest typename "\"test2.LoRaNetworkTest\""

