version 3
run General-0-20260517-15:02:19-17463
attr configname General
attr datetime 20260517-15:02:19
attr datetimef 20260517-150219
attr experiment General
attr inifile omnetpp.ini
attr iterationvars "$0=\"avg\""
attr iterationvarsd avg
attr iterationvarsf avg-
attr measurement "$0=\"avg\""
attr network test2.LoRaNetworkTest
attr processid 17463
attr repetition 0
attr replication #0
attr resultdir results
attr runnumber 0
attr seedset 0
config image-path ../../inet4.4/images
config network test2.LoRaNetworkTest
config record-eventlog true
config sim-time-limit 24h
config warmup-period 60s
config simtime-resolution -11
config repeat 30
config rng-class cMersenneTwister
config **.numPatients 100
config **.loRaNodes[0].**.initialX "300m + uniform(-10m, 10m)"
config **.loRaNodes[0].**.initialY "250m + uniform(-8m, 8m)"
config **.loRaNodes[1].**.initialX "450m + uniform(-10m, 10m)"
config **.loRaNodes[1].**.initialY "250m + uniform(-8m, 8m)"
config **.loRaNodes[2].**.initialX "600m + uniform(-10m, 10m)"
config **.loRaNodes[2].**.initialY "250m + uniform(-8m, 8m)"
config **.loRaNodes[3].**.initialX "750m + uniform(-10m, 10m)"
config **.loRaNodes[3].**.initialY "250m + uniform(-8m, 8m)"
config **.loRaNodes[4].**.initialX "900m + uniform(-10m, 10m)"
config **.loRaNodes[4].**.initialY "250m + uniform(-8m, 8m)"
config **.loRaNodes[5].**.initialX "1050m + uniform(-10m, 10m)"
config **.loRaNodes[5].**.initialY "250m + uniform(-8m, 8m)"
config **.loRaNodes[6].**.initialX "1200m + uniform(-10m, 10m)"
config **.loRaNodes[6].**.initialY "250m + uniform(-8m, 8m)"
config **.loRaNodes[7].**.initialX "1350m + uniform(-10m, 10m)"
config **.loRaNodes[7].**.initialY "250m + uniform(-8m, 8m)"
config **.loRaNodes[8].**.initialX "1500m + uniform(-10m, 10m)"
config **.loRaNodes[8].**.initialY "250m + uniform(-8m, 8m)"
config **.loRaNodes[9].**.initialX "1650m + uniform(-10m, 10m)"
config **.loRaNodes[9].**.initialY "250m + uniform(-8m, 8m)"
config **.loRaNodes[10].**.initialX "300m + uniform(-10m, 10m)"
config **.loRaNodes[10].**.initialY "370m + uniform(-8m, 8m)"
config **.loRaNodes[11].**.initialX "450m + uniform(-10m, 10m)"
config **.loRaNodes[11].**.initialY "370m + uniform(-8m, 8m)"
config **.loRaNodes[12].**.initialX "600m + uniform(-10m, 10m)"
config **.loRaNodes[12].**.initialY "370m + uniform(-8m, 8m)"
config **.loRaNodes[13].**.initialX "750m + uniform(-10m, 10m)"
config **.loRaNodes[13].**.initialY "370m + uniform(-8m, 8m)"
config **.loRaNodes[14].**.initialX "900m + uniform(-10m, 10m)"
config **.loRaNodes[14].**.initialY "370m + uniform(-8m, 8m)"
config **.loRaNodes[15].**.initialX "1050m + uniform(-10m, 10m)"
config **.loRaNodes[15].**.initialY "370m + uniform(-8m, 8m)"
config **.loRaNodes[16].**.initialX "1200m + uniform(-10m, 10m)"
config **.loRaNodes[16].**.initialY "370m + uniform(-8m, 8m)"
config **.loRaNodes[17].**.initialX "1350m + uniform(-10m, 10m)"
config **.loRaNodes[17].**.initialY "370m + uniform(-8m, 8m)"
config **.loRaNodes[18].**.initialX "1500m + uniform(-10m, 10m)"
config **.loRaNodes[18].**.initialY "370m + uniform(-8m, 8m)"
config **.loRaNodes[19].**.initialX "1650m + uniform(-10m, 10m)"
config **.loRaNodes[19].**.initialY "370m + uniform(-8m, 8m)"
config **.loRaNodes[20].**.initialX "300m + uniform(-10m, 10m)"
config **.loRaNodes[20].**.initialY "490m + uniform(-8m, 8m)"
config **.loRaNodes[21].**.initialX "450m + uniform(-10m, 10m)"
config **.loRaNodes[21].**.initialY "490m + uniform(-8m, 8m)"
config **.loRaNodes[22].**.initialX "600m + uniform(-10m, 10m)"
config **.loRaNodes[22].**.initialY "490m + uniform(-8m, 8m)"
config **.loRaNodes[23].**.initialX "750m + uniform(-10m, 10m)"
config **.loRaNodes[23].**.initialY "490m + uniform(-8m, 8m)"
config **.loRaNodes[24].**.initialX "900m + uniform(-10m, 10m)"
config **.loRaNodes[24].**.initialY "490m + uniform(-8m, 8m)"
config **.loRaNodes[25].**.initialX "1050m + uniform(-10m, 10m)"
config **.loRaNodes[25].**.initialY "490m + uniform(-8m, 8m)"
config **.loRaNodes[26].**.initialX "1200m + uniform(-10m, 10m)"
config **.loRaNodes[26].**.initialY "490m + uniform(-8m, 8m)"
config **.loRaNodes[27].**.initialX "1350m + uniform(-10m, 10m)"
config **.loRaNodes[27].**.initialY "490m + uniform(-8m, 8m)"
config **.loRaNodes[28].**.initialX "1500m + uniform(-10m, 10m)"
config **.loRaNodes[28].**.initialY "490m + uniform(-8m, 8m)"
config **.loRaNodes[29].**.initialX "1650m + uniform(-10m, 10m)"
config **.loRaNodes[29].**.initialY "490m + uniform(-8m, 8m)"
config **.loRaNodes[30].**.initialX "300m + uniform(-10m, 10m)"
config **.loRaNodes[30].**.initialY "610m + uniform(-8m, 8m)"
config **.loRaNodes[31].**.initialX "450m + uniform(-10m, 10m)"
config **.loRaNodes[31].**.initialY "610m + uniform(-8m, 8m)"
config **.loRaNodes[32].**.initialX "600m + uniform(-10m, 10m)"
config **.loRaNodes[32].**.initialY "610m + uniform(-8m, 8m)"
config **.loRaNodes[33].**.initialX "750m + uniform(-10m, 10m)"
config **.loRaNodes[33].**.initialY "610m + uniform(-8m, 8m)"
config **.loRaNodes[34].**.initialX "900m + uniform(-10m, 10m)"
config **.loRaNodes[34].**.initialY "610m + uniform(-8m, 8m)"
config **.loRaNodes[35].**.initialX "1050m + uniform(-10m, 10m)"
config **.loRaNodes[35].**.initialY "610m + uniform(-8m, 8m)"
config **.loRaNodes[36].**.initialX "1200m + uniform(-10m, 10m)"
config **.loRaNodes[36].**.initialY "610m + uniform(-8m, 8m)"
config **.loRaNodes[37].**.initialX "1350m + uniform(-10m, 10m)"
config **.loRaNodes[37].**.initialY "610m + uniform(-8m, 8m)"
config **.loRaNodes[38].**.initialX "1500m + uniform(-10m, 10m)"
config **.loRaNodes[38].**.initialY "610m + uniform(-8m, 8m)"
config **.loRaNodes[39].**.initialX "1650m + uniform(-10m, 10m)"
config **.loRaNodes[39].**.initialY "610m + uniform(-8m, 8m)"
config **.loRaNodes[40].**.initialX "300m + uniform(-10m, 10m)"
config **.loRaNodes[40].**.initialY "730m + uniform(-8m, 8m)"
config **.loRaNodes[41].**.initialX "450m + uniform(-10m, 10m)"
config **.loRaNodes[41].**.initialY "730m + uniform(-8m, 8m)"
config **.loRaNodes[42].**.initialX "600m + uniform(-10m, 10m)"
config **.loRaNodes[42].**.initialY "730m + uniform(-8m, 8m)"
config **.loRaNodes[43].**.initialX "750m + uniform(-10m, 10m)"
config **.loRaNodes[43].**.initialY "730m + uniform(-8m, 8m)"
config **.loRaNodes[44].**.initialX "900m + uniform(-10m, 10m)"
config **.loRaNodes[44].**.initialY "730m + uniform(-8m, 8m)"
config **.loRaNodes[45].**.initialX "1050m + uniform(-10m, 10m)"
config **.loRaNodes[45].**.initialY "730m + uniform(-8m, 8m)"
config **.loRaNodes[46].**.initialX "1200m + uniform(-10m, 10m)"
config **.loRaNodes[46].**.initialY "730m + uniform(-8m, 8m)"
config **.loRaNodes[47].**.initialX "1350m + uniform(-10m, 10m)"
config **.loRaNodes[47].**.initialY "730m + uniform(-8m, 8m)"
config **.loRaNodes[48].**.initialX "1500m + uniform(-10m, 10m)"
config **.loRaNodes[48].**.initialY "730m + uniform(-8m, 8m)"
config **.loRaNodes[49].**.initialX "1650m + uniform(-10m, 10m)"
config **.loRaNodes[49].**.initialY "730m + uniform(-8m, 8m)"
config **.loRaNodes[50].**.initialX "300m + uniform(-10m, 10m)"
config **.loRaNodes[50].**.initialY "850m + uniform(-8m, 8m)"
config **.loRaNodes[51].**.initialX "450m + uniform(-10m, 10m)"
config **.loRaNodes[51].**.initialY "850m + uniform(-8m, 8m)"
config **.loRaNodes[52].**.initialX "600m + uniform(-10m, 10m)"
config **.loRaNodes[52].**.initialY "850m + uniform(-8m, 8m)"
config **.loRaNodes[53].**.initialX "750m + uniform(-10m, 10m)"
config **.loRaNodes[53].**.initialY "850m + uniform(-8m, 8m)"
config **.loRaNodes[54].**.initialX "900m + uniform(-10m, 10m)"
config **.loRaNodes[54].**.initialY "850m + uniform(-8m, 8m)"
config **.loRaNodes[55].**.initialX "1050m + uniform(-10m, 10m)"
config **.loRaNodes[55].**.initialY "850m + uniform(-8m, 8m)"
config **.loRaNodes[56].**.initialX "1200m + uniform(-10m, 10m)"
config **.loRaNodes[56].**.initialY "850m + uniform(-8m, 8m)"
config **.loRaNodes[57].**.initialX "1350m + uniform(-10m, 10m)"
config **.loRaNodes[57].**.initialY "850m + uniform(-8m, 8m)"
config **.loRaNodes[58].**.initialX "1500m + uniform(-10m, 10m)"
config **.loRaNodes[58].**.initialY "850m + uniform(-8m, 8m)"
config **.loRaNodes[59].**.initialX "1650m + uniform(-10m, 10m)"
config **.loRaNodes[59].**.initialY "850m + uniform(-8m, 8m)"
config **.loRaNodes[60].**.initialX "300m + uniform(-10m, 10m)"
config **.loRaNodes[60].**.initialY "970m + uniform(-8m, 8m)"
config **.loRaNodes[61].**.initialX "450m + uniform(-10m, 10m)"
config **.loRaNodes[61].**.initialY "970m + uniform(-8m, 8m)"
config **.loRaNodes[62].**.initialX "600m + uniform(-10m, 10m)"
config **.loRaNodes[62].**.initialY "970m + uniform(-8m, 8m)"
config **.loRaNodes[63].**.initialX "750m + uniform(-10m, 10m)"
config **.loRaNodes[63].**.initialY "970m + uniform(-8m, 8m)"
config **.loRaNodes[64].**.initialX "900m + uniform(-10m, 10m)"
config **.loRaNodes[64].**.initialY "970m + uniform(-8m, 8m)"
config **.loRaNodes[65].**.initialX "1050m + uniform(-10m, 10m)"
config **.loRaNodes[65].**.initialY "970m + uniform(-8m, 8m)"
config **.loRaNodes[66].**.initialX "1200m + uniform(-10m, 10m)"
config **.loRaNodes[66].**.initialY "970m + uniform(-8m, 8m)"
config **.loRaNodes[67].**.initialX "1350m + uniform(-10m, 10m)"
config **.loRaNodes[67].**.initialY "970m + uniform(-8m, 8m)"
config **.loRaNodes[68].**.initialX "1500m + uniform(-10m, 10m)"
config **.loRaNodes[68].**.initialY "970m + uniform(-8m, 8m)"
config **.loRaNodes[69].**.initialX "1650m + uniform(-10m, 10m)"
config **.loRaNodes[69].**.initialY "970m + uniform(-8m, 8m)"
config **.loRaNodes[70].**.initialX "300m + uniform(-10m, 10m)"
config **.loRaNodes[70].**.initialY "1090m + uniform(-8m, 8m)"
config **.loRaNodes[71].**.initialX "450m + uniform(-10m, 10m)"
config **.loRaNodes[71].**.initialY "1090m + uniform(-8m, 8m)"
config **.loRaNodes[72].**.initialX "600m + uniform(-10m, 10m)"
config **.loRaNodes[72].**.initialY "1090m + uniform(-8m, 8m)"
config **.loRaNodes[73].**.initialX "750m + uniform(-10m, 10m)"
config **.loRaNodes[73].**.initialY "1090m + uniform(-8m, 8m)"
config **.loRaNodes[74].**.initialX "900m + uniform(-10m, 10m)"
config **.loRaNodes[74].**.initialY "1090m + uniform(-8m, 8m)"
config **.loRaNodes[75].**.initialX "1050m + uniform(-10m, 10m)"
config **.loRaNodes[75].**.initialY "1090m + uniform(-8m, 8m)"
config **.loRaNodes[76].**.initialX "1200m + uniform(-10m, 10m)"
config **.loRaNodes[76].**.initialY "1090m + uniform(-8m, 8m)"
config **.loRaNodes[77].**.initialX "1350m + uniform(-10m, 10m)"
config **.loRaNodes[77].**.initialY "1090m + uniform(-8m, 8m)"
config **.loRaNodes[78].**.initialX "1500m + uniform(-10m, 10m)"
config **.loRaNodes[78].**.initialY "1090m + uniform(-8m, 8m)"
config **.loRaNodes[79].**.initialX "1650m + uniform(-10m, 10m)"
config **.loRaNodes[79].**.initialY "1090m + uniform(-8m, 8m)"
config **.loRaNodes[80].**.initialX "300m + uniform(-10m, 10m)"
config **.loRaNodes[80].**.initialY "1210m + uniform(-8m, 8m)"
config **.loRaNodes[81].**.initialX "450m + uniform(-10m, 10m)"
config **.loRaNodes[81].**.initialY "1210m + uniform(-8m, 8m)"
config **.loRaNodes[82].**.initialX "600m + uniform(-10m, 10m)"
config **.loRaNodes[82].**.initialY "1210m + uniform(-8m, 8m)"
config **.loRaNodes[83].**.initialX "750m + uniform(-10m, 10m)"
config **.loRaNodes[83].**.initialY "1210m + uniform(-8m, 8m)"
config **.loRaNodes[84].**.initialX "900m + uniform(-10m, 10m)"
config **.loRaNodes[84].**.initialY "1210m + uniform(-8m, 8m)"
config **.loRaNodes[85].**.initialX "1050m + uniform(-10m, 10m)"
config **.loRaNodes[85].**.initialY "1210m + uniform(-8m, 8m)"
config **.loRaNodes[86].**.initialX "1200m + uniform(-10m, 10m)"
config **.loRaNodes[86].**.initialY "1210m + uniform(-8m, 8m)"
config **.loRaNodes[87].**.initialX "1350m + uniform(-10m, 10m)"
config **.loRaNodes[87].**.initialY "1210m + uniform(-8m, 8m)"
config **.loRaNodes[88].**.initialX "1500m + uniform(-10m, 10m)"
config **.loRaNodes[88].**.initialY "1210m + uniform(-8m, 8m)"
config **.loRaNodes[89].**.initialX "1650m + uniform(-10m, 10m)"
config **.loRaNodes[89].**.initialY "1210m + uniform(-8m, 8m)"
config **.loRaNodes[90].**.initialX "300m + uniform(-10m, 10m)"
config **.loRaNodes[90].**.initialY "1330m + uniform(-8m, 8m)"
config **.loRaNodes[91].**.initialX "450m + uniform(-10m, 10m)"
config **.loRaNodes[91].**.initialY "1330m + uniform(-8m, 8m)"
config **.loRaNodes[92].**.initialX "600m + uniform(-10m, 10m)"
config **.loRaNodes[92].**.initialY "1330m + uniform(-8m, 8m)"
config **.loRaNodes[93].**.initialX "750m + uniform(-10m, 10m)"
config **.loRaNodes[93].**.initialY "1330m + uniform(-8m, 8m)"
config **.loRaNodes[94].**.initialX "900m + uniform(-10m, 10m)"
config **.loRaNodes[94].**.initialY "1330m + uniform(-8m, 8m)"
config **.loRaNodes[95].**.initialX "1050m + uniform(-10m, 10m)"
config **.loRaNodes[95].**.initialY "1330m + uniform(-8m, 8m)"
config **.loRaNodes[96].**.initialX "1200m + uniform(-10m, 10m)"
config **.loRaNodes[96].**.initialY "1330m + uniform(-8m, 8m)"
config **.loRaNodes[97].**.initialX "1350m + uniform(-10m, 10m)"
config **.loRaNodes[97].**.initialY "1330m + uniform(-8m, 8m)"
config **.loRaNodes[98].**.initialX "1500m + uniform(-10m, 10m)"
config **.loRaNodes[98].**.initialY "1330m + uniform(-8m, 8m)"
config **.loRaNodes[99].**.initialX "1650m + uniform(-10m, 10m)"
config **.loRaNodes[99].**.initialY "1330m + uniform(-8m, 8m)"
config **.HospitalServer.numApps 1
config **.HospitalServer.app[0].typename HospitalServerApp
config **.HospitalServer.app[0].destPort 2000
config **.HospitalServer.app[0].localPort 1000
config **.HospitalServer.app[0].adrMethod "\"avg\""
config **.HospitalServer.**.evaluateADRinServer true
config **.HospitalServer.app[0].queueSize 50
config **.HospitalServer.app[0].expo_rate_lambda 0.83
config **.loRaGateway.numUdpApps 1
config **.loRaGateway.packetForwarder.localPort 2000
config **.loRaGateway.packetForwarder.destPort 1000
config **.loRaGateway.packetForwarder.destAddresses "\"HospitalServer\""
config **.loRaGateway.**.initFromDisplayString false
config **.loRaGateway.**.initialX 544.00m
config **.loRaGateway.**.initialY 544.00m
config **.loRaNodes[*].numApps 1
config **.loRaNodes[*].app[0].typename PatientSensorApp
config **.loRaNodes[*].app[0].expo_rate_lambda 0.00175
config **.loRaNodes[*].app[0].emergencyThreshold 50
config **.loRaNodes[*].**.timeToFirstPacket exponential(24s)
config **.loRaNodes[*].**.timeToNextPacket exponential(24s)
config **.loRaNodes[*].**.numberOfPacketsToSend 0
config **.loRaNodes[*].**.initialX 300m
config **.loRaNodes[*].**.initialY 350m
config **.loRaNodes[*].**initialLoRaSF 12
config **.loRaNodes[*].**initialLoRaTP 14dBm
config **.loRaNodes[*].**initialLoRaBW "125 kHz"
config **.loRaNodes[*].**initialLoRaCR 4
config **.loRaNodes[*].**.initFromDisplayString false
config **.loRaNodes[*].**.evaluateADRinNode true
config **.loRaNodes[*].LoRaNic.radio.energyConsumer.typename LoRaEnergyConsumer
config **.loRaNodes[*].**.energySourceModule "\"^.IdealEpEnergyStorage\""
config **.loRaNodes[*].LoRaNic.radio.energyConsumer.configFile "xmldoc(\"energyConsumptionParam.xml\")"
config **.maxTransmissionDuration 4s
config **.energyDetection -110dBm
config **.radio.radioMediumModule "\"LoRaMedium\""
config **.minInterferenceTime 0s
config **.constraintAreaMinX 0m
config **.constraintAreaMinY 0m
config **.constraintAreaMinZ 0m
config **.constraintAreaMaxZ 0m
config **.constraintAreaMaxX 3000.0m
config **.constraintAreaMaxY 3000.0m
config **.vector-recording true

par LoRaNetworkTest.gwRouter.ethg$o[0].channel typename "\"inet.node.ethernet.Eth1G\""
par LoRaNetworkTest.gwRouter.ethg$o[0].channel disabled false
attr mutable ""
par LoRaNetworkTest.gwRouter.ethg$o[0].channel delay 5e-08s
attr mutable ""
attr unit s
par LoRaNetworkTest.gwRouter.ethg$o[0].channel datarate 1e+09bps
attr mutable ""
attr unit bps
par LoRaNetworkTest.gwRouter.ethg$o[0].channel ber 0
attr mutable ""
par LoRaNetworkTest.gwRouter.ethg$o[0].channel per 0
attr mutable ""
par LoRaNetworkTest.gwRouter.ethg$o[0].channel length 10m
attr unit m
par LoRaNetworkTest.loRaGateway.ethg$o[0].channel typename "\"inet.node.ethernet.Eth1G\""
par LoRaNetworkTest.loRaGateway.ethg$o[0].channel disabled false
attr mutable ""
par LoRaNetworkTest.loRaGateway.ethg$o[0].channel delay 5e-08s
attr mutable ""
attr unit s
par LoRaNetworkTest.loRaGateway.ethg$o[0].channel datarate 1e+09bps
attr mutable ""
attr unit bps
par LoRaNetworkTest.loRaGateway.ethg$o[0].channel ber 0
attr mutable ""
par LoRaNetworkTest.loRaGateway.ethg$o[0].channel per 0
attr mutable ""
par LoRaNetworkTest.loRaGateway.ethg$o[0].channel length 10m
attr unit m
par LoRaNetworkTest.gwRouter.ethg$o[1].channel typename "\"inet.node.ethernet.Eth1G\""
par LoRaNetworkTest.gwRouter.ethg$o[1].channel disabled false
attr mutable ""
par LoRaNetworkTest.gwRouter.ethg$o[1].channel delay 5e-08s
attr mutable ""
attr unit s
par LoRaNetworkTest.gwRouter.ethg$o[1].channel datarate 1e+09bps
attr mutable ""
attr unit bps
par LoRaNetworkTest.gwRouter.ethg$o[1].channel ber 0
attr mutable ""
par LoRaNetworkTest.gwRouter.ethg$o[1].channel per 0
attr mutable ""
par LoRaNetworkTest.gwRouter.ethg$o[1].channel length 10m
attr unit m
par LoRaNetworkTest.HospitalServer.ethg$o[0].channel typename "\"inet.node.ethernet.Eth1G\""
par LoRaNetworkTest.HospitalServer.ethg$o[0].channel disabled false
attr mutable ""
par LoRaNetworkTest.HospitalServer.ethg$o[0].channel delay 5e-08s
attr mutable ""
attr unit s
par LoRaNetworkTest.HospitalServer.ethg$o[0].channel datarate 1e+09bps
attr mutable ""
attr unit bps
par LoRaNetworkTest.HospitalServer.ethg$o[0].channel ber 0
attr mutable ""
par LoRaNetworkTest.HospitalServer.ethg$o[0].channel per 0
attr mutable ""
par LoRaNetworkTest.HospitalServer.ethg$o[0].channel length 10m
attr unit m
par LoRaNetworkTest.loRaNodes[0].interfaceTable typename "\"inet.networklayer.common.InterfaceTable\""
par LoRaNetworkTest.loRaNodes[0].interfaceTable displayAddresses false
par LoRaNetworkTest.loRaNodes[0].mobility typename "\"inet.mobility.static.StationaryMobility\""
par LoRaNetworkTest.loRaNodes[0].mobility subjectModule "\"^\""
par LoRaNetworkTest.loRaNodes[0].mobility coordinateSystemModule "\"\""
par LoRaNetworkTest.loRaNodes[0].mobility displayStringTextFormat "\"p: %p\\nv: %v\""
attr mutable ""
par LoRaNetworkTest.loRaNodes[0].mobility updateDisplayString true
par LoRaNetworkTest.loRaNodes[0].mobility constraintAreaMinX 0m
attr unit m
par LoRaNetworkTest.loRaNodes[0].mobility constraintAreaMinY 0m
attr unit m
par LoRaNetworkTest.loRaNodes[0].mobility constraintAreaMinZ 0m
attr unit m
par LoRaNetworkTest.loRaNodes[0].mobility constraintAreaMaxX 3000m
attr unit m
par LoRaNetworkTest.loRaNodes[0].mobility constraintAreaMaxY 3000m
attr unit m
par LoRaNetworkTest.loRaNodes[0].mobility constraintAreaMaxZ 0m
attr unit m
par LoRaNetworkTest.loRaNodes[0].mobility initialX 300.976m
attr unit m
par LoRaNetworkTest.loRaNodes[0].mobility initialY 251.486m
attr unit m
par LoRaNetworkTest.loRaNodes[0].mobility initialZ 0m
attr unit m
par LoRaNetworkTest.loRaNodes[0].mobility initialLatitude "nan deg"
attr unit deg
par LoRaNetworkTest.loRaNodes[0].mobility initialLongitude "nan deg"
attr unit deg
par LoRaNetworkTest.loRaNodes[0].mobility initialAltitude 0m
attr unit m
par LoRaNetworkTest.loRaNodes[0].mobility initialHeading 0deg
attr unit deg
par LoRaNetworkTest.loRaNodes[0].mobility initialElevation 0deg
attr unit deg
par LoRaNetworkTest.loRaNodes[0].mobility initialBank 0deg
attr unit deg
par LoRaNetworkTest.loRaNodes[0].mobility initFromDisplayString false
par LoRaNetworkTest.loRaNodes[0].mobility updateFromDisplayString true
par LoRaNetworkTest.loRaNodes[0].LoRaNic.radioIn.channel typename "\"ned.IdealChannel\""
par LoRaNetworkTest.loRaNodes[0].LoRaNic.mac.upperLayerOut.channel typename "\"ned.IdealChannel\""
par LoRaNetworkTest.loRaNodes[0].LoRaNic.upperLayerIn.channel typename "\"ned.IdealChannel\""
par LoRaNetworkTest.loRaNodes[0].LoRaNic.queue typename "\"inet.queueing.queue.DropTailQueue\""
par LoRaNetworkTest.loRaNodes[0].LoRaNic.queue displayStringTextFormat "\"contains %p pk (%l) pushed %u\\npulled %o removed %r dropped %d\""
par LoRaNetworkTest.loRaNodes[0].LoRaNic.queue packetCapacity -1
par LoRaNetworkTest.loRaNodes[0].LoRaNic.queue dataCapacity -1b
attr unit b
par LoRaNetworkTest.loRaNodes[0].LoRaNic.queue dropperClass "\"inet::queueing::PacketAtCollectionEndDropper\""
par LoRaNetworkTest.loRaNodes[0].LoRaNic.queue comparatorClass "\"\""
par LoRaNetworkTest.loRaNodes[0].LoRaNic.queue bufferModule "\"\""
scalar LoRaNetworkTest.loRaNodes[0].LoRaNic.queue queueLength:last 0
attr autoWarmupFilter false
attr interpolationmode sample-hold
attr recordingmode last
attr source "warmup(atomic(constant0(packetPushEnded) + count(packetPushStarted) - count(packetPulled) - count(packetRemoved) - count(packetDropped)))"
attr title "queue length, last"
attr unit pk
scalar LoRaNetworkTest.loRaNodes[0].LoRaNic.queue queueLength:max 0
attr autoWarmupFilter false
attr interpolationmode sample-hold
attr recordingmode max
attr source "warmup(atomic(constant0(packetPushEnded) + count(packetPushStarted) - count(packetPulled) - count(packetRemoved) - count(packetDropped)))"
attr title "queue length, max"
attr unit pk
scalar LoRaNetworkTest.loRaNodes[0].LoRaNic.queue queueLength:timeavg 0
attr autoWarmupFilter false
attr interpolationmode sample-hold
attr recordingmode timeavg
attr source "warmup(atomic(constant0(packetPushEnded) + count(packetPushStarted) - count(packetPulled) - count(packetRemoved) - count(packetDropped)))"
attr title "queue length, timeavg"
attr unit pk
scalar LoRaNetworkTest.loRaNodes[0].LoRaNic.queue queueBitLength:last 0
attr autoWarmupFilter false
attr interpolationmode sample-hold
attr recordingmode last
attr source "warmup(atomic(constant0(packetPushEnded) + sum(packetLength(packetPushStarted)) - sum(packetLength(packetPulled)) - sum(packetLength(packetRemoved)) - sum(packetLength(packetDropped))))"
attr title "queue bit length, last"
attr unit b
scalar LoRaNetworkTest.loRaNodes[0].LoRaNic.queue queueBitLength:max 0
attr autoWarmupFilter false
attr interpolationmode sample-hold
attr recordingmode max
attr source "warmup(atomic(constant0(packetPushEnded) + sum(packetLength(packetPushStarted)) - sum(packetLength(packetPulled)) - sum(packetLength(packetRemoved)) - sum(packetLength(packetDropped))))"
attr title "queue bit length, max"
attr unit b
scalar LoRaNetworkTest.loRaNodes[0].LoRaNic.queue queueBitLength:timeavg 0
attr autoWarmupFilter false
attr interpolationmode sample-hold
attr recordingmode timeavg
attr source "warmup(atomic(constant0(packetPushEnded) + sum(packetLength(packetPushStarted)) - sum(packetLength(packetPulled)) - sum(packetLength(packetRemoved)) - sum(packetLength(packetDropped))))"
attr title "queue bit length, timeavg"
attr unit b
statistic LoRaNetworkTest.loRaNodes[0].LoRaNic.queue queueingTime:histogram
field count 1145
field mean 0
field stddev 0
field min 0
field max 0
field sum 0
field sqrsum 0
attr interpolationmode none
attr recordingmode histogram
attr source queueingTime(packetPulled)
attr title "queueing times"
attr unit s
bin	-inf	0
bin	-0.5	0
bin	-0.48	0
bin	-0.46	0
bin	-0.44	0
bin	-0.42	0
bin	-0.4	0
bin	-0.38	0
bin	-0.36	0
bin	-0.34	0
bin	-0.32	0
bin	-0.3	0
bin	-0.28	0
bin	-0.26	0
bin	-0.24	0
bin	-0.22	0
bin	-0.2	0
bin	-0.18	0
bin	-0.16	0
bin	-0.14	0
bin	-0.12	0
bin	-0.1	0
bin	-0.08	0
bin	-0.06	0
bin	-0.04	0
bin	-0.02	0
bin	0	1145
bin	0.02	0
bin	0.04	0
bin	0.06	0
bin	0.08	0
bin	0.1	0
bin	0.12	0
bin	0.14	0
bin	0.16	0
bin	0.18	0
bin	0.2	0
bin	0.22	0
bin	0.24	0
bin	0.26	0
bin	0.28	0
bin	0.3	0
bin	0.32	0
bin	0.34	0
bin	0.36	0
bin	0.38	0
bin	0.4	0
bin	0.42	0
bin	0.44	0
bin	0.46	0
bin	0.48	0
bin	0.5	0
scalar LoRaNetworkTest.loRaNodes[0].LoRaNic.queue outgoingPackets:count 1145
attr recordingmode count
attr source packetPulled
attr title "outgoing packets, count"
attr unit pk
scalar LoRaNetworkTest.loRaNodes[0].LoRaNic.queue outgoingPacketLengths:sum 91600
attr interpolationmode none
attr recordingmode sum
attr source packetLength(packetPulled)
attr title "outgoing packet lengths, sum"
attr unit b
statistic LoRaNetworkTest.loRaNodes[0].LoRaNic.queue outgoingPacketLengths:histogram
field count 1145
field mean 80
field stddev 0
field min 80
field max 80
field sum 91600
field sqrsum 7328000
attr interpolationmode none
attr recordingmode histogram
attr source packetLength(packetPulled)
attr title "outgoing packet lengths"
attr unit b
bin	-inf	0
bin	79	0
bin	80	1145
bin	81	0
statistic LoRaNetworkTest.loRaNodes[0].LoRaNic.queue flowQueueingTime:histogram
field count 0
field mean -nan
field stddev nan
field min nan
field max nan
field sum 0
field sqrsum 0
attr interpolationmode none
attr recordingmode histogram
attr source queueingTime(demuxFlow(packetPulled))
attr title "flow queueing times"
attr unit s
bin	-inf	0
bin	0	0
bin	1	0
scalar LoRaNetworkTest.loRaNodes[0].LoRaNic.queue incomingPackets:count 1145
attr recordingmode count
attr source packetPushStarted
attr title "incoming packets, count"
attr unit pk
scalar LoRaNetworkTest.loRaNodes[0].LoRaNic.queue incomingPacketLengths:sum 91600
attr interpolationmode none
attr recordingmode sum
attr source packetLength(packetPushStarted)
attr title "incoming packet lengths, sum"
attr unit b
statistic LoRaNetworkTest.loRaNodes[0].LoRaNic.queue incomingPacketLengths:histogram
field count 1145
field mean 80
field stddev 0
field min 80
field max 80
field sum 91600
field sqrsum 7328000
attr interpolationmode none
attr recordingmode histogram
attr source packetLength(packetPushStarted)
attr title "incoming packet lengths"
attr unit b
bin	-inf	0
bin	79	0
bin	80	1145
bin	81	0
scalar LoRaNetworkTest.loRaNodes[0].LoRaNic.queue droppedPacketsQueueOverflow:count 0
attr interpolationmode none
attr recordingmode count
attr source packetDropReasonIsQueueOverflow(packetDropped)
attr title "dropped packets: queue overflow, count"
attr unit pk
scalar LoRaNetworkTest.loRaNodes[0].LoRaNic.queue droppedPacketLengthsQueueOverflow:sum 0
attr interpolationmode none
attr recordingmode sum
attr source packetLength(packetDropReasonIsQueueOverflow(packetDropped))
attr title "dropped packet lengths: queue overflow, sum"
attr unit b
par LoRaNetworkTest.loRaNodes[0].LoRaNic.mac typename "\"flora.LoRa.LoRaMac\""
par LoRaNetworkTest.loRaNodes[0].LoRaNic.mac interfaceTableModule "\"LoRaNetworkTest.loRaNodes[0].interfaceTable\""
par LoRaNetworkTest.loRaNodes[0].LoRaNic.mac radioModule "\"^.radio\""
par LoRaNetworkTest.loRaNodes[0].LoRaNic.mac address "\"0A-AA-00-00-00-01\""
attr mutable ""
par LoRaNetworkTest.loRaNodes[0].LoRaNic.mac fcsMode "\"declared\""
attr enum declared,computed
par LoRaNetworkTest.loRaNodes[0].LoRaNic.mac useAck true
par LoRaNetworkTest.loRaNodes[0].LoRaNic.mac bitrate 250bps
attr unit bps
par LoRaNetworkTest.loRaNodes[0].LoRaNic.mac headerLength 17B
attr unit B
par LoRaNetworkTest.loRaNodes[0].LoRaNic.mac ackLength 14B
attr unit B
par LoRaNetworkTest.loRaNodes[0].LoRaNic.mac sifsTime 1e-05s
attr unit s
par LoRaNetworkTest.loRaNodes[0].LoRaNic.mac slotTime 2e-05s
attr unit s
par LoRaNetworkTest.loRaNodes[0].LoRaNic.mac difsTime 5e-05s
attr unit s
par LoRaNetworkTest.loRaNodes[0].LoRaNic.mac ackTimeout 0.44803s
attr unit s
par LoRaNetworkTest.loRaNodes[0].LoRaNic.mac mtu 1500
par LoRaNetworkTest.loRaNodes[0].LoRaNic.mac cwMin 31
par LoRaNetworkTest.loRaNodes[0].LoRaNic.mac cwMax 1023
par LoRaNetworkTest.loRaNodes[0].LoRaNic.mac cwMulticast 31
par LoRaNetworkTest.loRaNodes[0].LoRaNic.mac retryLimit 7
scalar LoRaNetworkTest.loRaNodes[0].LoRaNic.mac numRetry 0
scalar LoRaNetworkTest.loRaNodes[0].LoRaNic.mac numSentWithoutRetry 0
scalar LoRaNetworkTest.loRaNodes[0].LoRaNic.mac numGivenUp 0
scalar LoRaNetworkTest.loRaNodes[0].LoRaNic.mac numSent 1146
scalar LoRaNetworkTest.loRaNodes[0].LoRaNic.mac numReceived 10
scalar LoRaNetworkTest.loRaNodes[0].LoRaNic.mac numSentBroadcast 0
scalar LoRaNetworkTest.loRaNodes[0].LoRaNic.mac numReceivedBroadcast 0
scalar LoRaNetworkTest.loRaNodes[0].LoRaNic.mac packetDropIncorrectlyReceived:count 0
attr interpolationmode none
attr recordingmode count
attr source packetDropReasonIsIncorrectlyReceived(packetDropped)
attr title "packet drop: incorrectly received, count"
scalar LoRaNetworkTest.loRaNodes[0].LoRaNic.mac packetDropIncorrectlyReceived:sum(packetBytes) 0
attr interpolationmode none
attr recordingmode sum(packetBytes)
attr source packetDropReasonIsIncorrectlyReceived(packetDropped)
attr title "packet drop: incorrectly received, sum(packetBytes)"
scalar LoRaNetworkTest.loRaNodes[0].LoRaNic.mac packetDropNotAddressedToUs:count 0
attr interpolationmode none
attr recordingmode count
attr source packetDropReasonIsNotAddressedToUs(packetDropped)
attr title "packet drop: not addressed to us, count"
scalar LoRaNetworkTest.loRaNodes[0].LoRaNic.mac packetDropNotAddressedToUs:sum(packetBytes) 0
attr interpolationmode none
attr recordingmode sum(packetBytes)
attr source packetDropReasonIsNotAddressedToUs(packetDropped)
attr title "packet drop: not addressed to us, sum(packetBytes)"
scalar LoRaNetworkTest.loRaNodes[0].LoRaNic.mac packetDropQueueOverflow:count 0
attr interpolationmode none
attr recordingmode count
attr source packetDropReasonIsQueueOverflow(packetDropped)
attr title "packet drop: queue overflow, count"
scalar LoRaNetworkTest.loRaNodes[0].LoRaNic.mac packetDropQueueOverflow:sum(packetBytes) 0
attr interpolationmode none
attr recordingmode sum(packetBytes)
attr source packetDropReasonIsQueueOverflow(packetDropped)
attr title "packet drop: queue overflow, sum(packetBytes)"
scalar LoRaNetworkTest.loRaNodes[0].LoRaNic.mac packetDropRetryLimitReached:count 0
attr interpolationmode none
attr recordingmode count
attr source packetDropReasonIsRetryLimitReached(packetDropped)
attr title "packet drop: retry limit reached, count"
scalar LoRaNetworkTest.loRaNodes[0].LoRaNic.mac packetDropRetryLimitReached:sum(packetBytes) 0
attr interpolationmode none
attr recordingmode sum(packetBytes)
attr source packetDropReasonIsRetryLimitReached(packetDropped)
attr title "packet drop: retry limit reached, sum(packetBytes)"
scalar LoRaNetworkTest.loRaNodes[0].LoRaNic.mac linkBroken:count 0
attr interpolationmode none
attr recordingmode count
attr source linkBroken
attr title "link break, count"
par LoRaNetworkTest.loRaNodes[0].LoRaNic.radio.antenna typename "\"inet.physicallayer.wireless.common.antenna.IsotropicAntenna\""
par LoRaNetworkTest.loRaNodes[0].LoRaNic.radio.antenna mobilityModule "\"^.^.^.mobility\""
par LoRaNetworkTest.loRaNodes[0].LoRaNic.radio.antenna numAntennas 1
par LoRaNetworkTest.loRaNodes[0].LoRaNic.radio.transmitter typename "\"flora.LoRaPhy.LoRaTransmitter\""
par LoRaNetworkTest.loRaNodes[0].LoRaNic.radio.transmitter preambleDuration 0.001s
attr unit s
par LoRaNetworkTest.loRaNodes[0].LoRaNic.radio.transmitter headerLength 0b
attr unit b
par LoRaNetworkTest.loRaNodes[0].LoRaNic.radio.transmitter bitrate 250000bps
attr unit bps
par LoRaNetworkTest.loRaNodes[0].LoRaNic.radio.transmitter power 0.025118W
attr unit W
par LoRaNetworkTest.loRaNodes[0].LoRaNic.radio.transmitter centerFrequency 8.68e+08Hz
attr unit Hz
par LoRaNetworkTest.loRaNodes[0].LoRaNic.radio.transmitter bandwidth 250000Hz
attr unit Hz
par LoRaNetworkTest.loRaNodes[0].LoRaNic.radio.transmitter modulation "\"LoRaModulation\""
scalar LoRaNetworkTest.loRaNodes[0].LoRaNic.radio.transmitter LoRaTransmissionCreated:count 1145
attr recordingmode count
attr source LoRaTransmissionCreated
par LoRaNetworkTest.loRaNodes[0].LoRaNic.radio.receiver typename "\"flora.LoRaPhy.LoRaReceiver\""
par LoRaNetworkTest.loRaNodes[0].LoRaNic.radio.receiver snirThreshold -8dB
attr unit dB
par LoRaNetworkTest.loRaNodes[0].LoRaNic.radio.receiver snirThresholdMode "\"min\""
attr unit min,mean
par LoRaNetworkTest.loRaNodes[0].LoRaNic.radio.receiver energyDetection -110dBm
attr unit dBm
par LoRaNetworkTest.loRaNodes[0].LoRaNic.radio.receiver sensitivity -137dBm
attr unit dBm
par LoRaNetworkTest.loRaNodes[0].LoRaNic.radio.receiver centerFrequency 8.68e+08Hz
attr unit Hz
par LoRaNetworkTest.loRaNodes[0].LoRaNic.radio.receiver bandwidth 250000Hz
attr unit Hz
par LoRaNetworkTest.loRaNodes[0].LoRaNic.radio.receiver modulation "\"BPSK\""
par LoRaNetworkTest.loRaNodes[0].LoRaNic.radio.receiver alohaChannelModel false
scalar LoRaNetworkTest.loRaNodes[0].LoRaNic.radio.receiver numCollisions 0
scalar LoRaNetworkTest.loRaNodes[0].LoRaNic.radio.receiver rcvBelowSensitivity 1084
scalar LoRaNetworkTest.loRaNodes[0].LoRaNic.radio.receiver LoRaReceptionCollision:count 0
attr recordingmode count
attr source LoRaReceptionCollision
par LoRaNetworkTest.loRaNodes[0].LoRaNic.radio.energyConsumer typename "\"flora.LoRaEnergyModules.LoRaEnergyConsumer\""
par LoRaNetworkTest.loRaNodes[0].LoRaNic.radio.energyConsumer energySourceModule "\"^.IdealEpEnergyStorage\""
par LoRaNetworkTest.loRaNodes[0].LoRaNic.radio.energyConsumer offPowerConsumption 0W
attr unit W
par LoRaNetworkTest.loRaNodes[0].LoRaNic.radio.energyConsumer sleepPowerConsumption 0.001W
attr unit W
par LoRaNetworkTest.loRaNodes[0].LoRaNic.radio.energyConsumer switchingPowerConsumption 0.001W
attr unit W
par LoRaNetworkTest.loRaNodes[0].LoRaNic.radio.energyConsumer receiverIdlePowerConsumption 0.002W
attr unit W
par LoRaNetworkTest.loRaNodes[0].LoRaNic.radio.energyConsumer receiverBusyPowerConsumption 0.005W
attr unit W
par LoRaNetworkTest.loRaNodes[0].LoRaNic.radio.energyConsumer receiverReceivingPowerConsumption 0.01W
attr unit W
par LoRaNetworkTest.loRaNodes[0].LoRaNic.radio.energyConsumer receiverReceivingPreamblePowerConsumption 0.01W
attr unit W
par LoRaNetworkTest.loRaNodes[0].LoRaNic.radio.energyConsumer receiverReceivingHeaderPowerConsumption 0.01W
attr unit W
par LoRaNetworkTest.loRaNodes[0].LoRaNic.radio.energyConsumer receiverReceivingDataPowerConsumption 0.01W
attr unit W
par LoRaNetworkTest.loRaNodes[0].LoRaNic.radio.energyConsumer transmitterIdlePowerConsumption 0.002W
attr unit W
par LoRaNetworkTest.loRaNodes[0].LoRaNic.radio.energyConsumer transmitterTransmittingPowerConsumption 0.1W
attr unit W
par LoRaNetworkTest.loRaNodes[0].LoRaNic.radio.energyConsumer transmitterTransmittingPreamblePowerConsumption 0.1W
attr unit W
par LoRaNetworkTest.loRaNodes[0].LoRaNic.radio.energyConsumer transmitterTransmittingHeaderPowerConsumption 0.1W
attr unit W
par LoRaNetworkTest.loRaNodes[0].LoRaNic.radio.energyConsumer transmitterTransmittingDataPowerConsumption 0.1W
attr unit W
par LoRaNetworkTest.loRaNodes[0].LoRaNic.radio.energyConsumer configFile "<root>...</root> at /home/kayra/Desktop/omnetpp-6.0.3/samples/test2/simulations//energyConsumptionParam.xml:2"
scalar LoRaNetworkTest.loRaNodes[0].LoRaNic.radio.energyConsumer totalEnergyConsumed 174.41465963091
par LoRaNetworkTest.loRaNodes[0].LoRaNic.radio.IdealEpEnergyStorage typename "\"inet.power.storage.IdealEpEnergyStorage\""
scalar LoRaNetworkTest.loRaNodes[0].LoRaNic.radio.IdealEpEnergyStorage residualEnergyCapacity:last -174.41465963091
attr interpolationmode linear
attr recordingmode last
attr source residualEnergyCapacityChanged
attr title "Residual energy capacity, last"
par LoRaNetworkTest.loRaNodes[0].LoRaNic.radio typename "\"flora.LoRa.LoRaRadio\""
par LoRaNetworkTest.loRaNodes[0].LoRaNic.radio radioMediumModule "\"LoRaMedium\""
par LoRaNetworkTest.loRaNodes[0].LoRaNic.radio energySourceModule "\"^.IdealEpEnergyStorage\""
par LoRaNetworkTest.loRaNodes[0].LoRaNic.radio initialRadioMode "\"off\""
attr enum off,sleep,receiver,transmitter,transceiver
par LoRaNetworkTest.loRaNodes[0].LoRaNic.radio switchingTimes "\"ms 0 0 0 0 0 0 0 0 0 0 0 0 0 0 0 0 0 0 0 0 0 0 0 0 0\""
par LoRaNetworkTest.loRaNodes[0].LoRaNic.radio sendRawBytes false
par LoRaNetworkTest.loRaNodes[0].LoRaNic.radio separateTransmissionParts false
par LoRaNetworkTest.loRaNodes[0].LoRaNic.radio separateReceptionParts false
par LoRaNetworkTest.loRaNodes[0].LoRaNic.radio displayCommunicationRange false
par LoRaNetworkTest.loRaNodes[0].LoRaNic.radio displayInterferenceRange false
par LoRaNetworkTest.loRaNodes[0].LoRaNic.radio centerFrequency 8.68e+08Hz
attr unit Hz
par LoRaNetworkTest.loRaNodes[0].LoRaNic.radio bandwidth 250000Hz
attr unit Hz
par LoRaNetworkTest.loRaNodes[0].LoRaNic.radio iAmGateway false
scalar LoRaNetworkTest.loRaNodes[0].LoRaNic.radio radioMode:count 10619
attr interpolationmode sample-hold
attr recordingmode count
attr source radioModeChanged
attr title "Radio mode, count"
scalar LoRaNetworkTest.loRaNodes[0].LoRaNic.radio receptionState:count 9947
attr interpolationmode sample-hold
attr recordingmode count
attr source receptionStateChanged
attr title "Radio reception state, count"
scalar LoRaNetworkTest.loRaNodes[0].LoRaNic.radio transmissionState:count 4580
attr interpolationmode sample-hold
attr recordingmode count
attr source transmissionStateChanged
attr title "Radio transmission state, count"
statistic LoRaNetworkTest.loRaNodes[0].LoRaNic.radio minSnir:histogram
field count 267
field mean 3.2453850504026
field stddev 4.2386388643118
field min 0.050449840359808
field max 31.783788117331
field sum 866.51780845748
field sqrsum 7591.1557477419
attr recordingmode histogram
attr source minimumSnir(packetSentToUpper)
attr title "Min SNIR"
bin	-inf	0
bin	0	3
bin	0.5	38
bin	1	75
bin	1.5	33
bin	2	26
bin	2.5	14
bin	3	10
bin	3.5	7
bin	4	11
bin	4.5	5
bin	5	0
bin	5.5	15
bin	6	7
bin	6.5	1
bin	7	2
bin	7.5	1
bin	8	0
bin	8.5	2
bin	9	1
bin	9.5	0
bin	10	1
bin	10.5	0
bin	11	2
bin	11.5	0
bin	12	1
bin	12.5	1
bin	13	1
bin	13.5	0
bin	14	2
bin	14.5	1
bin	15	0
bin	15.5	0
bin	16	0
bin	16.5	1
bin	17	1
bin	17.5	0
bin	18	0
bin	18.5	0
bin	19	0
bin	19.5	0
bin	20	0
bin	20.5	0
bin	21	0
bin	21.5	1
bin	22	0
bin	22.5	1
bin	23	0
bin	23.5	0
bin	24	0
bin	24.5	1
bin	25	0
bin	25.5	0
bin	26	0
bin	26.5	0
bin	27	1
bin	27.5	0
bin	28	0
bin	28.5	0
bin	29	0
bin	29.5	0
bin	30	0
bin	30.5	0
bin	31	0
bin	31.5	1
bin	32	0
bin	32.5	0
bin	33	0
bin	33.5	0
bin	34	0
bin	34.5	0
bin	35	0
bin	35.5	0
bin	36	0
bin	36.5	0
bin	37	0
bin	37.5	0
bin	38	0
bin	38.5	0
bin	39	0
bin	39.5	0
bin	40	0
statistic LoRaNetworkTest.loRaNodes[0].LoRaNic.radio packetErrorRate:histogram
field count 267
field mean 0
field stddev 0
field min 0
field max 0
field sum 0
field sqrsum 0
attr recordingmode histogram
attr source packetErrorRate(packetSentToUpper)
attr title "Packet error rate"
bin	-inf	0
bin	-0.5	0
bin	-0.48	0
bin	-0.46	0
bin	-0.44	0
bin	-0.42	0
bin	-0.4	0
bin	-0.38	0
bin	-0.36	0
bin	-0.34	0
bin	-0.32	0
bin	-0.3	0
bin	-0.28	0
bin	-0.26	0
bin	-0.24	0
bin	-0.22	0
bin	-0.2	0
bin	-0.18	0
bin	-0.16	0
bin	-0.14	0
bin	-0.12	0
bin	-0.1	0
bin	-0.08	0
bin	-0.06	0
bin	-0.04	0
bin	-0.02	0
bin	0	267
bin	0.02	0
bin	0.04	0
bin	0.06	0
bin	0.08	0
bin	0.1	0
bin	0.12	0
bin	0.14	0
bin	0.16	0
bin	0.18	0
bin	0.2	0
bin	0.22	0
bin	0.24	0
bin	0.26	0
bin	0.28	0
bin	0.3	0
bin	0.32	0
bin	0.34	0
bin	0.36	0
bin	0.38	0
bin	0.4	0
bin	0.42	0
bin	0.44	0
bin	0.46	0
bin	0.48	0
bin	0.5	0
statistic LoRaNetworkTest.loRaNodes[0].LoRaNic.radio bitErrorRate:histogram
field count 267
field mean 0
field stddev 0
field min 0
field max 0
field sum 0
field sqrsum 0
attr recordingmode histogram
attr source bitErrorRate(packetSentToUpper)
attr title "Bit error rate"
bin	-inf	0
bin	-0.5	0
bin	-0.48	0
bin	-0.46	0
bin	-0.44	0
bin	-0.42	0
bin	-0.4	0
bin	-0.38	0
bin	-0.36	0
bin	-0.34	0
bin	-0.32	0
bin	-0.3	0
bin	-0.28	0
bin	-0.26	0
bin	-0.24	0
bin	-0.22	0
bin	-0.2	0
bin	-0.18	0
bin	-0.16	0
bin	-0.14	0
bin	-0.12	0
bin	-0.1	0
bin	-0.08	0
bin	-0.06	0
bin	-0.04	0
bin	-0.02	0
bin	0	267
bin	0.02	0
bin	0.04	0
bin	0.06	0
bin	0.08	0
bin	0.1	0
bin	0.12	0
bin	0.14	0
bin	0.16	0
bin	0.18	0
bin	0.2	0
bin	0.22	0
bin	0.24	0
bin	0.26	0
bin	0.28	0
bin	0.3	0
bin	0.32	0
bin	0.34	0
bin	0.36	0
bin	0.38	0
bin	0.4	0
bin	0.42	0
bin	0.44	0
bin	0.46	0
bin	0.48	0
bin	0.5	0
statistic LoRaNetworkTest.loRaNodes[0].LoRaNic.radio symbolErrorRate:histogram
field count 267
field mean 0
field stddev 0
field min 0
field max 0
field sum 0
field sqrsum 0
attr recordingmode histogram
attr source symbolErrorRate(packetSentToUpper)
attr title "Symbol error rate"
bin	-inf	0
bin	-0.5	0
bin	-0.48	0
bin	-0.46	0
bin	-0.44	0
bin	-0.42	0
bin	-0.4	0
bin	-0.38	0
bin	-0.36	0
bin	-0.34	0
bin	-0.32	0
bin	-0.3	0
bin	-0.28	0
bin	-0.26	0
bin	-0.24	0
bin	-0.22	0
bin	-0.2	0
bin	-0.18	0
bin	-0.16	0
bin	-0.14	0
bin	-0.12	0
bin	-0.1	0
bin	-0.08	0
bin	-0.06	0
bin	-0.04	0
bin	-0.02	0
bin	0	267
bin	0.02	0
bin	0.04	0
bin	0.06	0
bin	0.08	0
bin	0.1	0
bin	0.12	0
bin	0.14	0
bin	0.16	0
bin	0.18	0
bin	0.2	0
bin	0.22	0
bin	0.24	0
bin	0.26	0
bin	0.28	0
bin	0.3	0
bin	0.32	0
bin	0.34	0
bin	0.36	0
bin	0.38	0
bin	0.4	0
bin	0.42	0
bin	0.44	0
bin	0.46	0
bin	0.48	0
bin	0.5	0
par LoRaNetworkTest.loRaNodes[0].LoRaNic typename "\"flora.LoRa.LoRaNic\""
par LoRaNetworkTest.loRaNodes[0].LoRaNic displayStringTextFormat "\"%a (%i)\\n%m\""
par LoRaNetworkTest.loRaNodes[0].LoRaNic recordPcap false
par LoRaNetworkTest.loRaNodes[0].LoRaNic numPcapRecorders 0
par LoRaNetworkTest.loRaNodes[0].LoRaNic interfaceTableModule "\"LoRaNetworkTest.loRaNodes[0].interfaceTable\""
par LoRaNetworkTest.loRaNodes[0].LoRaNic energySourceModule "\"^.IdealEpEnergyStorage\""
par LoRaNetworkTest.loRaNodes[0].LoRaNic protocol "\"\""
scalar LoRaNetworkTest.loRaNodes[0].LoRaNic packetDropInterfaceDown:count 0
attr interpolationmode none
attr recordingmode count
attr source packetDropReasonIsInterfaceDown(packetDropped)
attr title "packet drops: interface down, count"
scalar LoRaNetworkTest.loRaNodes[0].LoRaNic packetDropInterfaceDown:sum(packetBytes) 0
attr interpolationmode none
attr recordingmode sum(packetBytes)
attr source packetDropReasonIsInterfaceDown(packetDropped)
attr title "packet drops: interface down, sum(packetBytes)"
scalar LoRaNetworkTest.loRaNodes[0].LoRaNic packetDropNoCarrier:count 0
attr interpolationmode none
attr recordingmode count
attr source packetDropReasonIsNoCarrier(packetDropped)
attr title "packet drops: no carrier, count"
scalar LoRaNetworkTest.loRaNodes[0].LoRaNic packetDropNoCarrier:sum(packetBytes) 0
attr interpolationmode none
attr recordingmode sum(packetBytes)
attr source packetDropReasonIsNoCarrier(packetDropped)
attr title "packet drops: no carrier, sum(packetBytes)"
par LoRaNetworkTest.loRaNodes[0].app[0] typename "\"test2.PatientSensorApp\""
par LoRaNetworkTest.loRaNodes[0].app[0] numberOfPacketsToSend 0
par LoRaNetworkTest.loRaNodes[0].app[0] timeToFirstPacket exponential(24s)
attr unit s
par LoRaNetworkTest.loRaNodes[0].app[0] timeToNextPacket exponential(24s)
attr unit s
par LoRaNetworkTest.loRaNodes[0].app[0] initialLoRaTP 14dBm
attr unit dBm
par LoRaNetworkTest.loRaNodes[0].app[0] initialLoRaCF 8.68e+08Hz
attr unit Hz
par LoRaNetworkTest.loRaNodes[0].app[0] initialLoRaSF 12
par LoRaNetworkTest.loRaNodes[0].app[0] initialLoRaBW 125000Hz
attr unit Hz
par LoRaNetworkTest.loRaNodes[0].app[0] initialLoRaCR 4
par LoRaNetworkTest.loRaNodes[0].app[0] initialUseHeader true
par LoRaNetworkTest.loRaNodes[0].app[0] evaluateADRinNode true
par LoRaNetworkTest.loRaNodes[0].app[0] dataSize 10B
attr unit B
par LoRaNetworkTest.loRaNodes[0].app[0] expo_rate_lambda 0.00175
par LoRaNetworkTest.loRaNodes[0].app[0] emergencyThreshold 50
scalar LoRaNetworkTest.loRaNodes[0].app[0] urgentPacketsSentTotal 118
scalar LoRaNetworkTest.loRaNodes[0].app[0] normalPacketsSentTotal 1027
scalar LoRaNetworkTest.loRaNodes[0].app[0] positionX 300.97627004609
scalar LoRaNetworkTest.loRaNodes[0].app[0] positionY 251.48551386222
scalar LoRaNetworkTest.loRaNodes[0].app[0] finalTP 14
scalar LoRaNetworkTest.loRaNodes[0].app[0] finalSF 10
scalar LoRaNetworkTest.loRaNodes[0].app[0] sentPackets 1145
scalar LoRaNetworkTest.loRaNodes[0].app[0] receivedADRCommands 10
statistic LoRaNetworkTest.loRaNodes[0].app[0] emergencyVariate:histogram
field count 1145
field mean 565.48100687239
field stddev 534.94134955086
field min 0.29861665622821
field max 4211.5669914158
field sum 647475.75286888
field sqrsum 693504851.75118
attr recordingmode histogram
attr title "Exponential variate samples"
bin	-inf	0
bin	0	118
bin	50	81
bin	100	73
bin	150	77
bin	200	68
bin	250	59
bin	300	49
bin	350	45
bin	400	35
bin	450	35
bin	500	36
bin	550	41
bin	600	34
bin	650	31
bin	700	33
bin	750	28
bin	800	26
bin	850	21
bin	900	21
bin	950	24
bin	1000	18
bin	1050	26
bin	1100	15
bin	1150	22
bin	1200	13
bin	1250	7
bin	1300	10
bin	1350	8
bin	1400	10
bin	1450	4
bin	1500	8
bin	1550	10
bin	1600	5
bin	1650	5
bin	1700	6
bin	1750	8
bin	1800	6
bin	1850	1
bin	1900	4
bin	1950	3
bin	2000	2
bin	2050	2
bin	2100	0
bin	2150	2
bin	2200	1
bin	2250	4
bin	2300	0
bin	2350	1
bin	2400	0
bin	2450	0
bin	2500	0
bin	2550	0
bin	2600	1
bin	2650	0
bin	2700	1
bin	2750	1
bin	2800	1
bin	2850	0
bin	2900	1
bin	2950	2
bin	3000	0
bin	3050	0
bin	3100	1
bin	3150	0
bin	3200	0
bin	3250	0
bin	3300	0
bin	3350	0
bin	3400	0
bin	3450	0
bin	3500	0
bin	3550	0
bin	3600	0
bin	3650	0
bin	3700	0
bin	3750	0
bin	3800	0
bin	3850	0
bin	3900	0
bin	3950	0
bin	4000	0
bin	4050	0
bin	4100	0
bin	4150	0
bin	4200	1
bin	4250	0
scalar LoRaNetworkTest.loRaNodes[0].app[0] normalPacketSent:count 1027
attr recordingmode count
attr title "Normal packets sent, count"
scalar LoRaNetworkTest.loRaNodes[0].app[0] normalPacketSent:sum 1027
attr recordingmode sum
attr title "Normal packets sent, sum"
scalar LoRaNetworkTest.loRaNodes[0].app[0] urgentPacketSent:count 118
attr recordingmode count
attr title "Urgent packets sent, count"
scalar LoRaNetworkTest.loRaNodes[0].app[0] urgentPacketSent:sum 118
attr recordingmode sum
attr title "Urgent packets sent, sum"
scalar LoRaNetworkTest.loRaNodes[0].app[0] LoRa_AppPacketSent:count 1145
attr recordingmode count
attr source LoRa_AppPacketSent
par LoRaNetworkTest.loRaNodes[0] typename "\"flora.LoraNode.LoRaNode\""
par LoRaNetworkTest.loRaNodes[0] numApps 1
par LoRaNetworkTest.loRaNodes[0] deploymentType "\"\""
par LoRaNetworkTest.loRaNodes[0] maxGatewayDistance 320
par LoRaNetworkTest.loRaNodes[0] gatewayX 320
par LoRaNetworkTest.loRaNodes[0] gatewayY 320
par LoRaNetworkTest.loRaNodes[1].interfaceTable typename "\"inet.networklayer.common.InterfaceTable\""
par LoRaNetworkTest.loRaNodes[1].interfaceTable displayAddresses false
par LoRaNetworkTest.loRaNodes[1].mobility typename "\"inet.mobility.static.StationaryMobility\""
par LoRaNetworkTest.loRaNodes[1].mobility subjectModule "\"^\""
par LoRaNetworkTest.loRaNodes[1].mobility coordinateSystemModule "\"\""
par LoRaNetworkTest.loRaNodes[1].mobility displayStringTextFormat "\"p: %p\\nv: %v\""
attr mutable ""
par LoRaNetworkTest.loRaNodes[1].mobility updateDisplayString true
par LoRaNetworkTest.loRaNodes[1].mobility constraintAreaMinX 0m
attr unit m
par LoRaNetworkTest.loRaNodes[1].mobility constraintAreaMinY 0m
attr unit m
par LoRaNetworkTest.loRaNodes[1].mobility constraintAreaMinZ 0m
attr unit m
par LoRaNetworkTest.loRaNodes[1].mobility constraintAreaMaxX 3000m
attr unit m
par LoRaNetworkTest.loRaNodes[1].mobility constraintAreaMaxY 3000m
attr unit m
par LoRaNetworkTest.loRaNodes[1].mobility constraintAreaMaxZ 0m
attr unit m
par LoRaNetworkTest.loRaNodes[1].mobility initialX 456.885m
attr unit m
par LoRaNetworkTest.loRaNodes[1].mobility initialY 251.644m
attr unit m
par LoRaNetworkTest.loRaNodes[1].mobility initialZ 0m
attr unit m
par LoRaNetworkTest.loRaNodes[1].mobility initialLatitude "nan deg"
attr unit deg
par LoRaNetworkTest.loRaNodes[1].mobility initialLongitude "nan deg"
attr unit deg
par LoRaNetworkTest.loRaNodes[1].mobility initialAltitude 0m
attr unit m
par LoRaNetworkTest.loRaNodes[1].mobility initialHeading 0deg
attr unit deg
par LoRaNetworkTest.loRaNodes[1].mobility initialElevation 0deg
attr unit deg
par LoRaNetworkTest.loRaNodes[1].mobility initialBank 0deg
attr unit deg
par LoRaNetworkTest.loRaNodes[1].mobility initFromDisplayString false
par LoRaNetworkTest.loRaNodes[1].mobility updateFromDisplayString true
par LoRaNetworkTest.loRaNodes[1].LoRaNic.radioIn.channel typename "\"ned.IdealChannel\""
par LoRaNetworkTest.loRaNodes[1].LoRaNic.mac.upperLayerOut.channel typename "\"ned.IdealChannel\""
par LoRaNetworkTest.loRaNodes[1].LoRaNic.upperLayerIn.channel typename "\"ned.IdealChannel\""
par LoRaNetworkTest.loRaNodes[1].LoRaNic.queue typename "\"inet.queueing.queue.DropTailQueue\""
par LoRaNetworkTest.loRaNodes[1].LoRaNic.queue displayStringTextFormat "\"contains %p pk (%l) pushed %u\\npulled %o removed %r dropped %d\""
par LoRaNetworkTest.loRaNodes[1].LoRaNic.queue packetCapacity -1
par LoRaNetworkTest.loRaNodes[1].LoRaNic.queue dataCapacity -1b
attr unit b
par LoRaNetworkTest.loRaNodes[1].LoRaNic.queue dropperClass "\"inet::queueing::PacketAtCollectionEndDropper\""
par LoRaNetworkTest.loRaNodes[1].LoRaNic.queue comparatorClass "\"\""
par LoRaNetworkTest.loRaNodes[1].LoRaNic.queue bufferModule "\"\""
scalar LoRaNetworkTest.loRaNodes[1].LoRaNic.queue queueLength:last 0
attr autoWarmupFilter false
attr interpolationmode sample-hold
attr recordingmode last
attr source "warmup(atomic(constant0(packetPushEnded) + count(packetPushStarted) - count(packetPulled) - count(packetRemoved) - count(packetDropped)))"
attr title "queue length, last"
attr unit pk
scalar LoRaNetworkTest.loRaNodes[1].LoRaNic.queue queueLength:max 0
attr autoWarmupFilter false
attr interpolationmode sample-hold
attr recordingmode max
attr source "warmup(atomic(constant0(packetPushEnded) + count(packetPushStarted) - count(packetPulled) - count(packetRemoved) - count(packetDropped)))"
attr title "queue length, max"
attr unit pk
scalar LoRaNetworkTest.loRaNodes[1].LoRaNic.queue queueLength:timeavg 0
attr autoWarmupFilter false
attr interpolationmode sample-hold
attr recordingmode timeavg
attr source "warmup(atomic(constant0(packetPushEnded) + count(packetPushStarted) - count(packetPulled) - count(packetRemoved) - count(packetDropped)))"
attr title "queue length, timeavg"
attr unit pk
scalar LoRaNetworkTest.loRaNodes[1].LoRaNic.queue queueBitLength:last 0
attr autoWarmupFilter false
attr interpolationmode sample-hold
attr recordingmode last
attr source "warmup(atomic(constant0(packetPushEnded) + sum(packetLength(packetPushStarted)) - sum(packetLength(packetPulled)) - sum(packetLength(packetRemoved)) - sum(packetLength(packetDropped))))"
attr title "queue bit length, last"
attr unit b
scalar LoRaNetworkTest.loRaNodes[1].LoRaNic.queue queueBitLength:max 0
attr autoWarmupFilter false
attr interpolationmode sample-hold
attr recordingmode max
attr source "warmup(atomic(constant0(packetPushEnded) + sum(packetLength(packetPushStarted)) - sum(packetLength(packetPulled)) - sum(packetLength(packetRemoved)) - sum(packetLength(packetDropped))))"
attr title "queue bit length, max"
attr unit b
scalar LoRaNetworkTest.loRaNodes[1].LoRaNic.queue queueBitLength:timeavg 0
attr autoWarmupFilter false
attr interpolationmode sample-hold
attr recordingmode timeavg
attr source "warmup(atomic(constant0(packetPushEnded) + sum(packetLength(packetPushStarted)) - sum(packetLength(packetPulled)) - sum(packetLength(packetRemoved)) - sum(packetLength(packetDropped))))"
attr title "queue bit length, timeavg"
attr unit b
statistic LoRaNetworkTest.loRaNodes[1].LoRaNic.queue queueingTime:histogram
field count 1530
field mean 0
field stddev 0
field min 0
field max 0
field sum 0
field sqrsum 0
attr interpolationmode none
attr recordingmode histogram
attr source queueingTime(packetPulled)
attr title "queueing times"
attr unit s
bin	-inf	0
bin	-0.5	0
bin	-0.48	0
bin	-0.46	0
bin	-0.44	0
bin	-0.42	0
bin	-0.4	0
bin	-0.38	0
bin	-0.36	0
bin	-0.34	0
bin	-0.32	0
bin	-0.3	0
bin	-0.28	0
bin	-0.26	0
bin	-0.24	0
bin	-0.22	0
bin	-0.2	0
bin	-0.18	0
bin	-0.16	0
bin	-0.14	0
bin	-0.12	0
bin	-0.1	0
bin	-0.08	0
bin	-0.06	0
bin	-0.04	0
bin	-0.02	0
bin	0	1530
bin	0.02	0
bin	0.04	0
bin	0.06	0
bin	0.08	0
bin	0.1	0
bin	0.12	0
bin	0.14	0
bin	0.16	0
bin	0.18	0
bin	0.2	0
bin	0.22	0
bin	0.24	0
bin	0.26	0
bin	0.28	0
bin	0.3	0
bin	0.32	0
bin	0.34	0
bin	0.36	0
bin	0.38	0
bin	0.4	0
bin	0.42	0
bin	0.44	0
bin	0.46	0
bin	0.48	0
bin	0.5	0
scalar LoRaNetworkTest.loRaNodes[1].LoRaNic.queue outgoingPackets:count 1530
attr recordingmode count
attr source packetPulled
attr title "outgoing packets, count"
attr unit pk
scalar LoRaNetworkTest.loRaNodes[1].LoRaNic.queue outgoingPacketLengths:sum 122400
attr interpolationmode none
attr recordingmode sum
attr source packetLength(packetPulled)
attr title "outgoing packet lengths, sum"
attr unit b
statistic LoRaNetworkTest.loRaNodes[1].LoRaNic.queue outgoingPacketLengths:histogram
field count 1530
field mean 80
field stddev 0
field min 80
field max 80
field sum 122400
field sqrsum 9792000
attr interpolationmode none
attr recordingmode histogram
attr source packetLength(packetPulled)
attr title "outgoing packet lengths"
attr unit b
bin	-inf	0
bin	79	0
bin	80	1530
bin	81	0
statistic LoRaNetworkTest.loRaNodes[1].LoRaNic.queue flowQueueingTime:histogram
field count 0
field mean -nan
field stddev nan
field min nan
field max nan
field sum 0
field sqrsum 0
attr interpolationmode none
attr recordingmode histogram
attr source queueingTime(demuxFlow(packetPulled))
attr title "flow queueing times"
attr unit s
bin	-inf	0
bin	0	0
bin	1	0
scalar LoRaNetworkTest.loRaNodes[1].LoRaNic.queue incomingPackets:count 1530
attr recordingmode count
attr source packetPushStarted
attr title "incoming packets, count"
attr unit pk
scalar LoRaNetworkTest.loRaNodes[1].LoRaNic.queue incomingPacketLengths:sum 122400
attr interpolationmode none
attr recordingmode sum
attr source packetLength(packetPushStarted)
attr title "incoming packet lengths, sum"
attr unit b
statistic LoRaNetworkTest.loRaNodes[1].LoRaNic.queue incomingPacketLengths:histogram
field count 1530
field mean 80
field stddev 0
field min 80
field max 80
field sum 122400
field sqrsum 9792000
attr interpolationmode none
attr recordingmode histogram
attr source packetLength(packetPushStarted)
attr title "incoming packet lengths"
attr unit b
bin	-inf	0
bin	79	0
bin	80	1530
bin	81	0
scalar LoRaNetworkTest.loRaNodes[1].LoRaNic.queue droppedPacketsQueueOverflow:count 0
attr interpolationmode none
attr recordingmode count
attr source packetDropReasonIsQueueOverflow(packetDropped)
attr title "dropped packets: queue overflow, count"
attr unit pk
scalar LoRaNetworkTest.loRaNodes[1].LoRaNic.queue droppedPacketLengthsQueueOverflow:sum 0
attr interpolationmode none
attr recordingmode sum
attr source packetLength(packetDropReasonIsQueueOverflow(packetDropped))
attr title "dropped packet lengths: queue overflow, sum"
attr unit b
par LoRaNetworkTest.loRaNodes[1].LoRaNic.mac typename "\"flora.LoRa.LoRaMac\""
par LoRaNetworkTest.loRaNodes[1].LoRaNic.mac interfaceTableModule "\"LoRaNetworkTest.loRaNodes[1].interfaceTable\""
par LoRaNetworkTest.loRaNodes[1].LoRaNic.mac radioModule "\"^.radio\""
par LoRaNetworkTest.loRaNodes[1].LoRaNic.mac address "\"0A-AA-00-00-00-02\""
attr mutable ""
par LoRaNetworkTest.loRaNodes[1].LoRaNic.mac fcsMode "\"declared\""
attr enum declared,computed
par LoRaNetworkTest.loRaNodes[1].LoRaNic.mac useAck true
par LoRaNetworkTest.loRaNodes[1].LoRaNic.mac bitrate 250bps
attr unit bps
par LoRaNetworkTest.loRaNodes[1].LoRaNic.mac headerLength 17B
attr unit B
par LoRaNetworkTest.loRaNodes[1].LoRaNic.mac ackLength 14B
attr unit B
par LoRaNetworkTest.loRaNodes[1].LoRaNic.mac sifsTime 1e-05s
attr unit s
par LoRaNetworkTest.loRaNodes[1].LoRaNic.mac slotTime 2e-05s
attr unit s
par LoRaNetworkTest.loRaNodes[1].LoRaNic.mac difsTime 5e-05s
attr unit s
par LoRaNetworkTest.loRaNodes[1].LoRaNic.mac ackTimeout 0.44803s
attr unit s
par LoRaNetworkTest.loRaNodes[1].LoRaNic.mac mtu 1500
par LoRaNetworkTest.loRaNodes[1].LoRaNic.mac cwMin 31
par LoRaNetworkTest.loRaNodes[1].LoRaNic.mac cwMax 1023
par LoRaNetworkTest.loRaNodes[1].LoRaNic.mac cwMulticast 31
par LoRaNetworkTest.loRaNodes[1].LoRaNic.mac retryLimit 7
scalar LoRaNetworkTest.loRaNodes[1].LoRaNic.mac numRetry 0
scalar LoRaNetworkTest.loRaNodes[1].LoRaNic.mac numSentWithoutRetry 0
scalar LoRaNetworkTest.loRaNodes[1].LoRaNic.mac numGivenUp 0
scalar LoRaNetworkTest.loRaNodes[1].LoRaNic.mac numSent 1531
scalar LoRaNetworkTest.loRaNodes[1].LoRaNic.mac numReceived 15
scalar LoRaNetworkTest.loRaNodes[1].LoRaNic.mac numSentBroadcast 0
scalar LoRaNetworkTest.loRaNodes[1].LoRaNic.mac numReceivedBroadcast 0
scalar LoRaNetworkTest.loRaNodes[1].LoRaNic.mac packetDropIncorrectlyReceived:count 0
attr interpolationmode none
attr recordingmode count
attr source packetDropReasonIsIncorrectlyReceived(packetDropped)
attr title "packet drop: incorrectly received, count"
scalar LoRaNetworkTest.loRaNodes[1].LoRaNic.mac packetDropIncorrectlyReceived:sum(packetBytes) 0
attr interpolationmode none
attr recordingmode sum(packetBytes)
attr source packetDropReasonIsIncorrectlyReceived(packetDropped)
attr title "packet drop: incorrectly received, sum(packetBytes)"
scalar LoRaNetworkTest.loRaNodes[1].LoRaNic.mac packetDropNotAddressedToUs:count 0
attr interpolationmode none
attr recordingmode count
attr source packetDropReasonIsNotAddressedToUs(packetDropped)
attr title "packet drop: not addressed to us, count"
scalar LoRaNetworkTest.loRaNodes[1].LoRaNic.mac packetDropNotAddressedToUs:sum(packetBytes) 0
attr interpolationmode none
attr recordingmode sum(packetBytes)
attr source packetDropReasonIsNotAddressedToUs(packetDropped)
attr title "packet drop: not addressed to us, sum(packetBytes)"
scalar LoRaNetworkTest.loRaNodes[1].LoRaNic.mac packetDropQueueOverflow:count 0
attr interpolationmode none
attr recordingmode count
attr source packetDropReasonIsQueueOverflow(packetDropped)
attr title "packet drop: queue overflow, count"
scalar LoRaNetworkTest.loRaNodes[1].LoRaNic.mac packetDropQueueOverflow:sum(packetBytes) 0
attr interpolationmode none
attr recordingmode sum(packetBytes)
attr source packetDropReasonIsQueueOverflow(packetDropped)
attr title "packet drop: queue overflow, sum(packetBytes)"
scalar LoRaNetworkTest.loRaNodes[1].LoRaNic.mac packetDropRetryLimitReached:count 0
attr interpolationmode none
attr recordingmode count
attr source packetDropReasonIsRetryLimitReached(packetDropped)
attr title "packet drop: retry limit reached, count"
scalar LoRaNetworkTest.loRaNodes[1].LoRaNic.mac packetDropRetryLimitReached:sum(packetBytes) 0
attr interpolationmode none
attr recordingmode sum(packetBytes)
attr source packetDropReasonIsRetryLimitReached(packetDropped)
attr title "packet drop: retry limit reached, sum(packetBytes)"
scalar LoRaNetworkTest.loRaNodes[1].LoRaNic.mac linkBroken:count 0
attr interpolationmode none
attr recordingmode count
attr source linkBroken
attr title "link break, count"
par LoRaNetworkTest.loRaNodes[1].LoRaNic.radio.antenna typename "\"inet.physicallayer.wireless.common.antenna.IsotropicAntenna\""
par LoRaNetworkTest.loRaNodes[1].LoRaNic.radio.antenna mobilityModule "\"^.^.^.mobility\""
par LoRaNetworkTest.loRaNodes[1].LoRaNic.radio.antenna numAntennas 1
par LoRaNetworkTest.loRaNodes[1].LoRaNic.radio.transmitter typename "\"flora.LoRaPhy.LoRaTransmitter\""
par LoRaNetworkTest.loRaNodes[1].LoRaNic.radio.transmitter preambleDuration 0.001s
attr unit s
par LoRaNetworkTest.loRaNodes[1].LoRaNic.radio.transmitter headerLength 0b
attr unit b
par LoRaNetworkTest.loRaNodes[1].LoRaNic.radio.transmitter bitrate 250000bps
attr unit bps
par LoRaNetworkTest.loRaNodes[1].LoRaNic.radio.transmitter power 0.025118W
attr unit W
par LoRaNetworkTest.loRaNodes[1].LoRaNic.radio.transmitter centerFrequency 8.68e+08Hz
attr unit Hz
par LoRaNetworkTest.loRaNodes[1].LoRaNic.radio.transmitter bandwidth 250000Hz
attr unit Hz
par LoRaNetworkTest.loRaNodes[1].LoRaNic.radio.transmitter modulation "\"LoRaModulation\""
scalar LoRaNetworkTest.loRaNodes[1].LoRaNic.radio.transmitter LoRaTransmissionCreated:count 1530
attr recordingmode count
attr source LoRaTransmissionCreated
par LoRaNetworkTest.loRaNodes[1].LoRaNic.radio.receiver typename "\"flora.LoRaPhy.LoRaReceiver\""
par LoRaNetworkTest.loRaNodes[1].LoRaNic.radio.receiver snirThreshold -8dB
attr unit dB
par LoRaNetworkTest.loRaNodes[1].LoRaNic.radio.receiver snirThresholdMode "\"min\""
attr unit min,mean
par LoRaNetworkTest.loRaNodes[1].LoRaNic.radio.receiver energyDetection -110dBm
attr unit dBm
par LoRaNetworkTest.loRaNodes[1].LoRaNic.radio.receiver sensitivity -137dBm
attr unit dBm
par LoRaNetworkTest.loRaNodes[1].LoRaNic.radio.receiver centerFrequency 8.68e+08Hz
attr unit Hz
par LoRaNetworkTest.loRaNodes[1].LoRaNic.radio.receiver bandwidth 250000Hz
attr unit Hz
par LoRaNetworkTest.loRaNodes[1].LoRaNic.radio.receiver modulation "\"BPSK\""
par LoRaNetworkTest.loRaNodes[1].LoRaNic.radio.receiver alohaChannelModel false
scalar LoRaNetworkTest.loRaNodes[1].LoRaNic.radio.receiver numCollisions 1
scalar LoRaNetworkTest.loRaNodes[1].LoRaNic.radio.receiver rcvBelowSensitivity 1333
scalar LoRaNetworkTest.loRaNodes[1].LoRaNic.radio.receiver LoRaReceptionCollision:count 0
attr recordingmode count
attr source LoRaReceptionCollision
par LoRaNetworkTest.loRaNodes[1].LoRaNic.radio.energyConsumer typename "\"flora.LoRaEnergyModules.LoRaEnergyConsumer\""
par LoRaNetworkTest.loRaNodes[1].LoRaNic.radio.energyConsumer energySourceModule "\"^.IdealEpEnergyStorage\""
par LoRaNetworkTest.loRaNodes[1].LoRaNic.radio.energyConsumer offPowerConsumption 0W
attr unit W
par LoRaNetworkTest.loRaNodes[1].LoRaNic.radio.energyConsumer sleepPowerConsumption 0.001W
attr unit W
par LoRaNetworkTest.loRaNodes[1].LoRaNic.radio.energyConsumer switchingPowerConsumption 0.001W
attr unit W
par LoRaNetworkTest.loRaNodes[1].LoRaNic.radio.energyConsumer receiverIdlePowerConsumption 0.002W
attr unit W
par LoRaNetworkTest.loRaNodes[1].LoRaNic.radio.energyConsumer receiverBusyPowerConsumption 0.005W
attr unit W
par LoRaNetworkTest.loRaNodes[1].LoRaNic.radio.energyConsumer receiverReceivingPowerConsumption 0.01W
attr unit W
par LoRaNetworkTest.loRaNodes[1].LoRaNic.radio.energyConsumer receiverReceivingPreamblePowerConsumption 0.01W
attr unit W
par LoRaNetworkTest.loRaNodes[1].LoRaNic.radio.energyConsumer receiverReceivingHeaderPowerConsumption 0.01W
attr unit W
par LoRaNetworkTest.loRaNodes[1].LoRaNic.radio.energyConsumer receiverReceivingDataPowerConsumption 0.01W
attr unit W
par LoRaNetworkTest.loRaNodes[1].LoRaNic.radio.energyConsumer transmitterIdlePowerConsumption 0.002W
attr unit W
par LoRaNetworkTest.loRaNodes[1].LoRaNic.radio.energyConsumer transmitterTransmittingPowerConsumption 0.1W
attr unit W
par LoRaNetworkTest.loRaNodes[1].LoRaNic.radio.energyConsumer transmitterTransmittingPreamblePowerConsumption 0.1W
attr unit W
par LoRaNetworkTest.loRaNodes[1].LoRaNic.radio.energyConsumer transmitterTransmittingHeaderPowerConsumption 0.1W
attr unit W
par LoRaNetworkTest.loRaNodes[1].LoRaNic.radio.energyConsumer transmitterTransmittingDataPowerConsumption 0.1W
attr unit W
par LoRaNetworkTest.loRaNodes[1].LoRaNic.radio.energyConsumer configFile "<root>...</root> at /home/kayra/Desktop/omnetpp-6.0.3/samples/test2/simulations//energyConsumptionParam.xml:2"
scalar LoRaNetworkTest.loRaNodes[1].LoRaNic.radio.energyConsumer totalEnergyConsumed 196.22415580923
par LoRaNetworkTest.loRaNodes[1].LoRaNic.radio.IdealEpEnergyStorage typename "\"inet.power.storage.IdealEpEnergyStorage\""
scalar LoRaNetworkTest.loRaNodes[1].LoRaNic.radio.IdealEpEnergyStorage residualEnergyCapacity:last -196.22415580923
attr interpolationmode linear
attr recordingmode last
attr source residualEnergyCapacityChanged
attr title "Residual energy capacity, last"
par LoRaNetworkTest.loRaNodes[1].LoRaNic.radio typename "\"flora.LoRa.LoRaRadio\""
par LoRaNetworkTest.loRaNodes[1].LoRaNic.radio radioMediumModule "\"LoRaMedium\""
par LoRaNetworkTest.loRaNodes[1].LoRaNic.radio energySourceModule "\"^.IdealEpEnergyStorage\""
par LoRaNetworkTest.loRaNodes[1].LoRaNic.radio initialRadioMode "\"off\""
attr enum off,sleep,receiver,transmitter,transceiver
par LoRaNetworkTest.loRaNodes[1].LoRaNic.radio switchingTimes "\"ms 0 0 0 0 0 0 0 0 0 0 0 0 0 0 0 0 0 0 0 0 0 0 0 0 0\""
par LoRaNetworkTest.loRaNodes[1].LoRaNic.radio sendRawBytes false
par LoRaNetworkTest.loRaNodes[1].LoRaNic.radio separateTransmissionParts false
par LoRaNetworkTest.loRaNodes[1].LoRaNic.radio separateReceptionParts false
par LoRaNetworkTest.loRaNodes[1].LoRaNic.radio displayCommunicationRange false
par LoRaNetworkTest.loRaNodes[1].LoRaNic.radio displayInterferenceRange false
par LoRaNetworkTest.loRaNodes[1].LoRaNic.radio centerFrequency 8.68e+08Hz
attr unit Hz
par LoRaNetworkTest.loRaNodes[1].LoRaNic.radio bandwidth 250000Hz
attr unit Hz
par LoRaNetworkTest.loRaNodes[1].LoRaNic.radio iAmGateway false
scalar LoRaNetworkTest.loRaNodes[1].LoRaNic.radio radioMode:count 14093
attr interpolationmode sample-hold
attr recordingmode count
attr source radioModeChanged
attr title "Radio mode, count"
scalar LoRaNetworkTest.loRaNodes[1].LoRaNic.radio receptionState:count 13332
attr interpolationmode sample-hold
attr recordingmode count
attr source receptionStateChanged
attr title "Radio reception state, count"
scalar LoRaNetworkTest.loRaNodes[1].LoRaNic.radio transmissionState:count 6120
attr interpolationmode sample-hold
attr recordingmode count
attr source transmissionStateChanged
attr title "Radio transmission state, count"
statistic LoRaNetworkTest.loRaNodes[1].LoRaNic.radio minSnir:histogram
field count 481
field mean 3.0600646096248
field stddev 3.6733469597955
field min 0.023041773008729
field max 31.166702484483
field sum 1471.8910772295
field sqrsum 10980.951180431
attr recordingmode histogram
attr source minimumSnir(packetSentToUpper)
attr title "Min SNIR"
bin	-inf	0
bin	0	13
bin	0.5	55
bin	1	126
bin	1.5	66
bin	2	46
bin	2.5	27
bin	3	25
bin	3.5	20
bin	4	17
bin	4.5	10
bin	5	12
bin	5.5	9
bin	6	14
bin	6.5	6
bin	7	5
bin	7.5	3
bin	8	2
bin	8.5	3
bin	9	0
bin	9.5	3
bin	10	3
bin	10.5	0
bin	11	1
bin	11.5	0
bin	12	2
bin	12.5	0
bin	13	2
bin	13.5	0
bin	14	0
bin	14.5	2
bin	15	1
bin	15.5	0
bin	16	2
bin	16.5	0
bin	17	0
bin	17.5	0
bin	18	0
bin	18.5	0
bin	19	0
bin	19.5	0
bin	20	0
bin	20.5	0
bin	21	0
bin	21.5	1
bin	22	0
bin	22.5	0
bin	23	1
bin	23.5	0
bin	24	1
bin	24.5	0
bin	25	0
bin	25.5	0
bin	26	0
bin	26.5	1
bin	27	0
bin	27.5	0
bin	28	0
bin	28.5	0
bin	29	0
bin	29.5	0
bin	30	0
bin	30.5	1
bin	31	1
bin	31.5	0
bin	32	0
bin	32.5	0
bin	33	0
bin	33.5	0
bin	34	0
bin	34.5	0
bin	35	0
bin	35.5	0
bin	36	0
bin	36.5	0
bin	37	0
bin	37.5	0
bin	38	0
bin	38.5	0
bin	39	0
statistic LoRaNetworkTest.loRaNodes[1].LoRaNic.radio packetErrorRate:histogram
field count 481
field mean 0
field stddev 0
field min 0
field max 0
field sum 0
field sqrsum 0
attr recordingmode histogram
attr source packetErrorRate(packetSentToUpper)
attr title "Packet error rate"
bin	-inf	0
bin	-0.5	0
bin	-0.48	0
bin	-0.46	0
bin	-0.44	0
bin	-0.42	0
bin	-0.4	0
bin	-0.38	0
bin	-0.36	0
bin	-0.34	0
bin	-0.32	0
bin	-0.3	0
bin	-0.28	0
bin	-0.26	0
bin	-0.24	0
bin	-0.22	0
bin	-0.2	0
bin	-0.18	0
bin	-0.16	0
bin	-0.14	0
bin	-0.12	0
bin	-0.1	0
bin	-0.08	0
bin	-0.06	0
bin	-0.04	0
bin	-0.02	0
bin	0	481
bin	0.02	0
bin	0.04	0
bin	0.06	0
bin	0.08	0
bin	0.1	0
bin	0.12	0
bin	0.14	0
bin	0.16	0
bin	0.18	0
bin	0.2	0
bin	0.22	0
bin	0.24	0
bin	0.26	0
bin	0.28	0
bin	0.3	0
bin	0.32	0
bin	0.34	0
bin	0.36	0
bin	0.38	0
bin	0.4	0
bin	0.42	0
bin	0.44	0
bin	0.46	0
bin	0.48	0
bin	0.5	0
statistic LoRaNetworkTest.loRaNodes[1].LoRaNic.radio bitErrorRate:histogram
field count 481
field mean 0
field stddev 0
field min 0
field max 0
field sum 0
field sqrsum 0
attr recordingmode histogram
attr source bitErrorRate(packetSentToUpper)
attr title "Bit error rate"
bin	-inf	0
bin	-0.5	0
bin	-0.48	0
bin	-0.46	0
bin	-0.44	0
bin	-0.42	0
bin	-0.4	0
bin	-0.38	0
bin	-0.36	0
bin	-0.34	0
bin	-0.32	0
bin	-0.3	0
bin	-0.28	0
bin	-0.26	0
bin	-0.24	0
bin	-0.22	0
bin	-0.2	0
bin	-0.18	0
bin	-0.16	0
bin	-0.14	0
bin	-0.12	0
bin	-0.1	0
bin	-0.08	0
bin	-0.06	0
bin	-0.04	0
bin	-0.02	0
bin	0	481
bin	0.02	0
bin	0.04	0
bin	0.06	0
bin	0.08	0
bin	0.1	0
bin	0.12	0
bin	0.14	0
bin	0.16	0
bin	0.18	0
bin	0.2	0
bin	0.22	0
bin	0.24	0
bin	0.26	0
bin	0.28	0
bin	0.3	0
bin	0.32	0
bin	0.34	0
bin	0.36	0
bin	0.38	0
bin	0.4	0
bin	0.42	0
bin	0.44	0
bin	0.46	0
bin	0.48	0
bin	0.5	0
statistic LoRaNetworkTest.loRaNodes[1].LoRaNic.radio symbolErrorRate:histogram
field count 481
field mean 0
field stddev 0
field min 0
field max 0
field sum 0
field sqrsum 0
attr recordingmode histogram
attr source symbolErrorRate(packetSentToUpper)
attr title "Symbol error rate"
bin	-inf	0
bin	-0.5	0
bin	-0.48	0
bin	-0.46	0
bin	-0.44	0
bin	-0.42	0
bin	-0.4	0
bin	-0.38	0
bin	-0.36	0
bin	-0.34	0
bin	-0.32	0
bin	-0.3	0
bin	-0.28	0
bin	-0.26	0
bin	-0.24	0
bin	-0.22	0
bin	-0.2	0
bin	-0.18	0
bin	-0.16	0
bin	-0.14	0
bin	-0.12	0
bin	-0.1	0
bin	-0.08	0
bin	-0.06	0
bin	-0.04	0
bin	-0.02	0
bin	0	481
bin	0.02	0
bin	0.04	0
bin	0.06	0
bin	0.08	0
bin	0.1	0
bin	0.12	0
bin	0.14	0
bin	0.16	0
bin	0.18	0
bin	0.2	0
bin	0.22	0
bin	0.24	0
bin	0.26	0
bin	0.28	0
bin	0.3	0
bin	0.32	0
bin	0.34	0
bin	0.36	0
bin	0.38	0
bin	0.4	0
bin	0.42	0
bin	0.44	0
bin	0.46	0
bin	0.48	0
bin	0.5	0
par LoRaNetworkTest.loRaNodes[1].LoRaNic typename "\"flora.LoRa.LoRaNic\""
par LoRaNetworkTest.loRaNodes[1].LoRaNic displayStringTextFormat "\"%a (%i)\\n%m\""
par LoRaNetworkTest.loRaNodes[1].LoRaNic recordPcap false
par LoRaNetworkTest.loRaNodes[1].LoRaNic numPcapRecorders 0
par LoRaNetworkTest.loRaNodes[1].LoRaNic interfaceTableModule "\"LoRaNetworkTest.loRaNodes[1].interfaceTable\""
par LoRaNetworkTest.loRaNodes[1].LoRaNic energySourceModule "\"^.IdealEpEnergyStorage\""
par LoRaNetworkTest.loRaNodes[1].LoRaNic protocol "\"\""
scalar LoRaNetworkTest.loRaNodes[1].LoRaNic packetDropInterfaceDown:count 0
attr interpolationmode none
attr recordingmode count
attr source packetDropReasonIsInterfaceDown(packetDropped)
attr title "packet drops: interface down, count"
scalar LoRaNetworkTest.loRaNodes[1].LoRaNic packetDropInterfaceDown:sum(packetBytes) 0
attr interpolationmode none
attr recordingmode sum(packetBytes)
attr source packetDropReasonIsInterfaceDown(packetDropped)
attr title "packet drops: interface down, sum(packetBytes)"
scalar LoRaNetworkTest.loRaNodes[1].LoRaNic packetDropNoCarrier:count 0
attr interpolationmode none
attr recordingmode count
attr source packetDropReasonIsNoCarrier(packetDropped)
attr title "packet drops: no carrier, count"
scalar LoRaNetworkTest.loRaNodes[1].LoRaNic packetDropNoCarrier:sum(packetBytes) 0
attr interpolationmode none
attr recordingmode sum(packetBytes)
attr source packetDropReasonIsNoCarrier(packetDropped)
attr title "packet drops: no carrier, sum(packetBytes)"
par LoRaNetworkTest.loRaNodes[1].app[0] typename "\"test2.PatientSensorApp\""
par LoRaNetworkTest.loRaNodes[1].app[0] numberOfPacketsToSend 0
par LoRaNetworkTest.loRaNodes[1].app[0] timeToFirstPacket exponential(24s)
attr unit s
par LoRaNetworkTest.loRaNodes[1].app[0] timeToNextPacket exponential(24s)
attr unit s
par LoRaNetworkTest.loRaNodes[1].app[0] initialLoRaTP 14dBm
attr unit dBm
par LoRaNetworkTest.loRaNodes[1].app[0] initialLoRaCF 8.68e+08Hz
attr unit Hz
par LoRaNetworkTest.loRaNodes[1].app[0] initialLoRaSF 12
par LoRaNetworkTest.loRaNodes[1].app[0] initialLoRaBW 125000Hz
attr unit Hz
par LoRaNetworkTest.loRaNodes[1].app[0] initialLoRaCR 4
par LoRaNetworkTest.loRaNodes[1].app[0] initialUseHeader true
par LoRaNetworkTest.loRaNodes[1].app[0] evaluateADRinNode true
par LoRaNetworkTest.loRaNodes[1].app[0] dataSize 10B
attr unit B
par LoRaNetworkTest.loRaNodes[1].app[0] expo_rate_lambda 0.00175
par LoRaNetworkTest.loRaNodes[1].app[0] emergencyThreshold 50
scalar LoRaNetworkTest.loRaNodes[1].app[0] urgentPacketsSentTotal 120
scalar LoRaNetworkTest.loRaNodes[1].app[0] normalPacketsSentTotal 1410
scalar LoRaNetworkTest.loRaNodes[1].app[0] positionX 456.8853148818
scalar LoRaNetworkTest.loRaNodes[1].app[0] positionY 251.64421392605
scalar LoRaNetworkTest.loRaNodes[1].app[0] finalTP 14
scalar LoRaNetworkTest.loRaNodes[1].app[0] finalSF 9
scalar LoRaNetworkTest.loRaNodes[1].app[0] sentPackets 1530
scalar LoRaNetworkTest.loRaNodes[1].app[0] receivedADRCommands 15
statistic LoRaNetworkTest.loRaNodes[1].app[0] emergencyVariate:histogram
field count 1530
field mean 554.03225950969
field stddev 558.03534001459
field min 0.78348565875287
field max 5169.1467696685
field sum 847669.35704982
field sqrsum 945772030.04168
attr recordingmode histogram
attr title "Exponential variate samples"
bin	-inf	0
bin	0	247
bin	100	202
bin	200	188
bin	300	155
bin	400	124
bin	500	96
bin	600	80
bin	700	80
bin	800	62
bin	900	48
bin	1000	45
bin	1100	38
bin	1200	28
bin	1300	25
bin	1400	24
bin	1500	17
bin	1600	6
bin	1700	9
bin	1800	5
bin	1900	7
bin	2000	8
bin	2100	4
bin	2200	4
bin	2300	5
bin	2400	3
bin	2500	2
bin	2600	3
bin	2700	6
bin	2800	1
bin	2900	2
bin	3000	0
bin	3100	1
bin	3200	0
bin	3300	0
bin	3400	1
bin	3500	0
bin	3600	1
bin	3700	0
bin	3800	0
bin	3900	1
bin	4000	0
bin	4100	0
bin	4200	1
bin	4300	0
bin	4400	0
bin	4500	0
bin	4600	0
bin	4700	0
bin	4800	0
bin	4900	0
bin	5000	0
bin	5100	1
bin	5200	0
scalar LoRaNetworkTest.loRaNodes[1].app[0] normalPacketSent:count 1410
attr recordingmode count
attr title "Normal packets sent, count"
scalar LoRaNetworkTest.loRaNodes[1].app[0] normalPacketSent:sum 1410
attr recordingmode sum
attr title "Normal packets sent, sum"
scalar LoRaNetworkTest.loRaNodes[1].app[0] urgentPacketSent:count 120
attr recordingmode count
attr title "Urgent packets sent, count"
scalar LoRaNetworkTest.loRaNodes[1].app[0] urgentPacketSent:sum 120
attr recordingmode sum
attr title "Urgent packets sent, sum"
scalar LoRaNetworkTest.loRaNodes[1].app[0] LoRa_AppPacketSent:count 1530
attr recordingmode count
attr source LoRa_AppPacketSent
par LoRaNetworkTest.loRaNodes[1] typename "\"flora.LoraNode.LoRaNode\""
par LoRaNetworkTest.loRaNodes[1] numApps 1
par LoRaNetworkTest.loRaNodes[1] deploymentType "\"\""
par LoRaNetworkTest.loRaNodes[1] maxGatewayDistance 320
par LoRaNetworkTest.loRaNodes[1] gatewayX 320
par LoRaNetworkTest.loRaNodes[1] gatewayY 320
par LoRaNetworkTest.loRaNodes[2].interfaceTable typename "\"inet.networklayer.common.InterfaceTable\""
par LoRaNetworkTest.loRaNodes[2].interfaceTable displayAddresses false
par LoRaNetworkTest.loRaNodes[2].mobility typename "\"inet.mobility.static.StationaryMobility\""
par LoRaNetworkTest.loRaNodes[2].mobility subjectModule "\"^\""
par LoRaNetworkTest.loRaNodes[2].mobility coordinateSystemModule "\"\""
par LoRaNetworkTest.loRaNodes[2].mobility displayStringTextFormat "\"p: %p\\nv: %v\""
attr mutable ""
par LoRaNetworkTest.loRaNodes[2].mobility updateDisplayString true
par LoRaNetworkTest.loRaNodes[2].mobility constraintAreaMinX 0m
attr unit m
par LoRaNetworkTest.loRaNodes[2].mobility constraintAreaMinY 0m
attr unit m
par LoRaNetworkTest.loRaNodes[2].mobility constraintAreaMinZ 0m
attr unit m
par LoRaNetworkTest.loRaNodes[2].mobility constraintAreaMaxX 3000m
attr unit m
par LoRaNetworkTest.loRaNodes[2].mobility constraintAreaMaxY 3000m
attr unit m
par LoRaNetworkTest.loRaNodes[2].mobility constraintAreaMaxZ 0m
attr unit m
par LoRaNetworkTest.loRaNodes[2].mobility initialX 600.898m
attr unit m
par LoRaNetworkTest.loRaNodes[2].mobility initialY 255.556m
attr unit m
par LoRaNetworkTest.loRaNodes[2].mobility initialZ 0m
attr unit m
par LoRaNetworkTest.loRaNodes[2].mobility initialLatitude "nan deg"
attr unit deg
par LoRaNetworkTest.loRaNodes[2].mobility initialLongitude "nan deg"
attr unit deg
par LoRaNetworkTest.loRaNodes[2].mobility initialAltitude 0m
attr unit m
par LoRaNetworkTest.loRaNodes[2].mobility initialHeading 0deg
attr unit deg
par LoRaNetworkTest.loRaNodes[2].mobility initialElevation 0deg
attr unit deg
par LoRaNetworkTest.loRaNodes[2].mobility initialBank 0deg
attr unit deg
par LoRaNetworkTest.loRaNodes[2].mobility initFromDisplayString false
par LoRaNetworkTest.loRaNodes[2].mobility updateFromDisplayString true
par LoRaNetworkTest.loRaNodes[2].LoRaNic.radioIn.channel typename "\"ned.IdealChannel\""
par LoRaNetworkTest.loRaNodes[2].LoRaNic.mac.upperLayerOut.channel typename "\"ned.IdealChannel\""
par LoRaNetworkTest.loRaNodes[2].LoRaNic.upperLayerIn.channel typename "\"ned.IdealChannel\""
par LoRaNetworkTest.loRaNodes[2].LoRaNic.queue typename "\"inet.queueing.queue.DropTailQueue\""
par LoRaNetworkTest.loRaNodes[2].LoRaNic.queue displayStringTextFormat "\"contains %p pk (%l) pushed %u\\npulled %o removed %r dropped %d\""
par LoRaNetworkTest.loRaNodes[2].LoRaNic.queue packetCapacity -1
par LoRaNetworkTest.loRaNodes[2].LoRaNic.queue dataCapacity -1b
attr unit b
par LoRaNetworkTest.loRaNodes[2].LoRaNic.queue dropperClass "\"inet::queueing::PacketAtCollectionEndDropper\""
par LoRaNetworkTest.loRaNodes[2].LoRaNic.queue comparatorClass "\"\""
par LoRaNetworkTest.loRaNodes[2].LoRaNic.queue bufferModule "\"\""
scalar LoRaNetworkTest.loRaNodes[2].LoRaNic.queue queueLength:last 0
attr autoWarmupFilter false
attr interpolationmode sample-hold
attr recordingmode last
attr source "warmup(atomic(constant0(packetPushEnded) + count(packetPushStarted) - count(packetPulled) - count(packetRemoved) - count(packetDropped)))"
attr title "queue length, last"
attr unit pk
scalar LoRaNetworkTest.loRaNodes[2].LoRaNic.queue queueLength:max 0
attr autoWarmupFilter false
attr interpolationmode sample-hold
attr recordingmode max
attr source "warmup(atomic(constant0(packetPushEnded) + count(packetPushStarted) - count(packetPulled) - count(packetRemoved) - count(packetDropped)))"
attr title "queue length, max"
attr unit pk
scalar LoRaNetworkTest.loRaNodes[2].LoRaNic.queue queueLength:timeavg 0
attr autoWarmupFilter false
attr interpolationmode sample-hold
attr recordingmode timeavg
attr source "warmup(atomic(constant0(packetPushEnded) + count(packetPushStarted) - count(packetPulled) - count(packetRemoved) - count(packetDropped)))"
attr title "queue length, timeavg"
attr unit pk
scalar LoRaNetworkTest.loRaNodes[2].LoRaNic.queue queueBitLength:last 0
attr autoWarmupFilter false
attr interpolationmode sample-hold
attr recordingmode last
attr source "warmup(atomic(constant0(packetPushEnded) + sum(packetLength(packetPushStarted)) - sum(packetLength(packetPulled)) - sum(packetLength(packetRemoved)) - sum(packetLength(packetDropped))))"
attr title "queue bit length, last"
attr unit b
scalar LoRaNetworkTest.loRaNodes[2].LoRaNic.queue queueBitLength:max 0
attr autoWarmupFilter false
attr interpolationmode sample-hold
attr recordingmode max
attr source "warmup(atomic(constant0(packetPushEnded) + sum(packetLength(packetPushStarted)) - sum(packetLength(packetPulled)) - sum(packetLength(packetRemoved)) - sum(packetLength(packetDropped))))"
attr title "queue bit length, max"
attr unit b
scalar LoRaNetworkTest.loRaNodes[2].LoRaNic.queue queueBitLength:timeavg 0
attr autoWarmupFilter false
attr interpolationmode sample-hold
attr recordingmode timeavg
attr source "warmup(atomic(constant0(packetPushEnded) + sum(packetLength(packetPushStarted)) - sum(packetLength(packetPulled)) - sum(packetLength(packetRemoved)) - sum(packetLength(packetDropped))))"
attr title "queue bit length, timeavg"
attr unit b
statistic LoRaNetworkTest.loRaNodes[2].LoRaNic.queue queueingTime:histogram
field count 1293
field mean 0
field stddev 0
field min 0
field max 0
field sum 0
field sqrsum 0
attr interpolationmode none
attr recordingmode histogram
attr source queueingTime(packetPulled)
attr title "queueing times"
attr unit s
bin	-inf	0
bin	-0.5	0
bin	-0.48	0
bin	-0.46	0
bin	-0.44	0
bin	-0.42	0
bin	-0.4	0
bin	-0.38	0
bin	-0.36	0
bin	-0.34	0
bin	-0.32	0
bin	-0.3	0
bin	-0.28	0
bin	-0.26	0
bin	-0.24	0
bin	-0.22	0
bin	-0.2	0
bin	-0.18	0
bin	-0.16	0
bin	-0.14	0
bin	-0.12	0
bin	-0.1	0
bin	-0.08	0
bin	-0.06	0
bin	-0.04	0
bin	-0.02	0
bin	0	1293
bin	0.02	0
bin	0.04	0
bin	0.06	0
bin	0.08	0
bin	0.1	0
bin	0.12	0
bin	0.14	0
bin	0.16	0
bin	0.18	0
bin	0.2	0
bin	0.22	0
bin	0.24	0
bin	0.26	0
bin	0.28	0
bin	0.3	0
bin	0.32	0
bin	0.34	0
bin	0.36	0
bin	0.38	0
bin	0.4	0
bin	0.42	0
bin	0.44	0
bin	0.46	0
bin	0.48	0
bin	0.5	0
scalar LoRaNetworkTest.loRaNodes[2].LoRaNic.queue outgoingPackets:count 1293
attr recordingmode count
attr source packetPulled
attr title "outgoing packets, count"
attr unit pk
scalar LoRaNetworkTest.loRaNodes[2].LoRaNic.queue outgoingPacketLengths:sum 103440
attr interpolationmode none
attr recordingmode sum
attr source packetLength(packetPulled)
attr title "outgoing packet lengths, sum"
attr unit b
[...]
attr unit pk
scalar LoRaNetworkTest.gwRouter.eth[1].queue droppedPacketLengthsQueueOverflow:sum 0
attr interpolationmode none
attr recordingmode sum
attr source packetLength(packetDropReasonIsQueueOverflow(packetDropped))
attr title "dropped packet lengths: queue overflow, sum"
attr unit b
par LoRaNetworkTest.gwRouter.eth[1].mac typename "\"inet.linklayer.ethernet.basic.EthernetMac\""
par LoRaNetworkTest.gwRouter.eth[1].mac interfaceTableModule "\"LoRaNetworkTest.gwRouter.interfaceTable\""
par LoRaNetworkTest.gwRouter.eth[1].mac displayStringTextFormat "\"rate: %b\\nsent: %s, rcvd: %r\\nqueue: %q, drop: %d\""
par LoRaNetworkTest.gwRouter.eth[1].mac sendRawBytes false
par LoRaNetworkTest.gwRouter.eth[1].mac promiscuous false
par LoRaNetworkTest.gwRouter.eth[1].mac duplexMode true
par LoRaNetworkTest.gwRouter.eth[1].mac mtu 1500B
attr unit B
par LoRaNetworkTest.gwRouter.eth[1].mac fcsMode "\"declared\""
attr enum declared,computed
par LoRaNetworkTest.gwRouter.eth[1].mac stopOperationExtraTime -1s
attr unit s
par LoRaNetworkTest.gwRouter.eth[1].mac stopOperationTimeout 2s
attr unit s
scalar LoRaNetworkTest.gwRouter.eth[1].mac "simulated time" 86400
scalar LoRaNetworkTest.gwRouter.eth[1].mac full-duplex 1
scalar LoRaNetworkTest.gwRouter.eth[1].mac "frames/sec sent" 0.30341435185185
scalar LoRaNetworkTest.gwRouter.eth[1].mac "frames/sec rcvd" 0.022361111111111
scalar LoRaNetworkTest.gwRouter.eth[1].mac "bits/sec sent" 176.60981481481
scalar LoRaNetworkTest.gwRouter.eth[1].mac "bits/sec rcvd" 11.448888888889
scalar LoRaNetworkTest.gwRouter.eth[1].mac "rx channel idle (%)" 99.999998712
scalar LoRaNetworkTest.gwRouter.eth[1].mac "rx channel utilization (%)" 1.288e-06
scalar LoRaNetworkTest.gwRouter.eth[1].mac rxPausePkUnits:count 0
attr interpolationmode none
attr recordingmode count
attr title "pause units received, count"
scalar LoRaNetworkTest.gwRouter.eth[1].mac rxPausePkUnits:sum 0
attr interpolationmode none
attr recordingmode sum
attr title "pause units received, sum"
scalar LoRaNetworkTest.gwRouter.eth[1].mac txPausePkUnits:count 0
attr interpolationmode none
attr recordingmode count
attr title "pause units sent, count"
scalar LoRaNetworkTest.gwRouter.eth[1].mac txPausePkUnits:sum 0
attr interpolationmode none
attr recordingmode sum
attr title "pause units sent, sum"
scalar LoRaNetworkTest.gwRouter.eth[1].mac rxPkOk:count 1931
attr interpolationmode none
attr recordingmode count
attr source rxPkOk
attr title "packets received OK, count"
scalar LoRaNetworkTest.gwRouter.eth[1].mac rxPkOk:sum(packetBytes) 123584
attr interpolationmode none
attr recordingmode sum(packetBytes)
attr source rxPkOk
attr title "packets received OK, sum(packetBytes)"
scalar LoRaNetworkTest.gwRouter.eth[1].mac txPk:count 26204
attr interpolationmode none
attr recordingmode count
attr source packetSentToLower
attr title "packets transmitted, count"
scalar LoRaNetworkTest.gwRouter.eth[1].mac txPk:sum(packetBytes) 1906592
attr interpolationmode none
attr recordingmode sum(packetBytes)
attr source packetSentToLower
attr title "packets transmitted, sum(packetBytes)"
scalar LoRaNetworkTest.gwRouter.eth[1].mac packetReceivedFromUpper:count 26204
attr interpolationmode none
attr recordingmode count
attr source packetReceivedFromUpper
attr title "packet bytes from higher layer, count"
scalar LoRaNetworkTest.gwRouter.eth[1].mac packetReceivedFromUpper:sum(packetBytes) 1893992
attr interpolationmode none
attr recordingmode sum(packetBytes)
attr source packetReceivedFromUpper
attr title "packet bytes from higher layer, sum(packetBytes)"
scalar LoRaNetworkTest.gwRouter.eth[1].mac passedUpPk:count 1931
attr interpolationmode none
attr recordingmode count
attr source packetSentToUpper
attr title "packets passed to higher layer, count"
scalar LoRaNetworkTest.gwRouter.eth[1].mac passedUpPk:sum(packetBytes) 123584
attr interpolationmode none
attr recordingmode sum(packetBytes)
attr source packetSentToUpper
attr title "packets passed to higher layer, sum(packetBytes)"
scalar LoRaNetworkTest.gwRouter.eth[1].mac packetDropIncorrectlyReceived:count 0
attr interpolationmode none
attr recordingmode count
attr source packetDropReasonIsIncorrectlyReceived(packetDropped)
attr title "packet drop: incorrectly received, count"
scalar LoRaNetworkTest.gwRouter.eth[1].mac packetDropIncorrectlyReceived:sum(packetBytes) 0
attr interpolationmode none
attr recordingmode sum(packetBytes)
attr source packetDropReasonIsIncorrectlyReceived(packetDropped)
attr title "packet drop: incorrectly received, sum(packetBytes)"
scalar LoRaNetworkTest.gwRouter.eth[1].mac packetDropInterfaceDown:count 0
attr interpolationmode none
attr recordingmode count
attr source packetDropReasonIsInterfaceDown(packetDropped)
attr title "packet drop: interface down, count"
scalar LoRaNetworkTest.gwRouter.eth[1].mac packetDropInterfaceDown:sum(packetBytes) 0
attr interpolationmode none
attr recordingmode sum(packetBytes)
attr source packetDropReasonIsInterfaceDown(packetDropped)
attr title "packet drop: interface down, sum(packetBytes)"
scalar LoRaNetworkTest.gwRouter.eth[1].mac packetDropNotAddressedToUs:count 0
attr interpolationmode none
attr recordingmode count
attr source packetDropReasonIsNotAddressedToUs(packetDropped)
attr title "packet drop: not addressed to us, count"
scalar LoRaNetworkTest.gwRouter.eth[1].mac packetDropNotAddressedToUs:sum(packetBytes) 0
attr interpolationmode none
attr recordingmode sum(packetBytes)
attr source packetDropReasonIsNotAddressedToUs(packetDropped)
attr title "packet drop: not addressed to us, sum(packetBytes)"
par LoRaNetworkTest.gwRouter.eth[1] typename "\"inet.linklayer.ethernet.EthernetInterface\""
par LoRaNetworkTest.gwRouter.eth[1] displayStringTextFormat "\"%a (%i)\\n%m\""
par LoRaNetworkTest.gwRouter.eth[1] recordPcap false
par LoRaNetworkTest.gwRouter.eth[1] numPcapRecorders 0
par LoRaNetworkTest.gwRouter.eth[1] interfaceTableModule "\"LoRaNetworkTest.gwRouter.interfaceTable\""
par LoRaNetworkTest.gwRouter.eth[1] protocol "\"ethernetmac\""
par LoRaNetworkTest.gwRouter.eth[1] address "\"0A-AA-00-00-00-69\""
attr mutable ""
par LoRaNetworkTest.gwRouter.eth[1] duplexMode true
par LoRaNetworkTest.gwRouter.eth[1] csmacdSupport false
par LoRaNetworkTest.gwRouter.eth[1] bitrate 0bps
attr unit bps
par LoRaNetworkTest.gwRouter.eth[1] fcsMode "\"declared\""
attr enum declared,computed
scalar LoRaNetworkTest.gwRouter.eth[1] packetDropInterfaceDown:count 0
attr interpolationmode none
attr recordingmode count
attr source packetDropReasonIsInterfaceDown(packetDropped)
attr title "packet drops: interface down, count"
scalar LoRaNetworkTest.gwRouter.eth[1] packetDropInterfaceDown:sum(packetBytes) 0
attr interpolationmode none
attr recordingmode sum(packetBytes)
attr source packetDropReasonIsInterfaceDown(packetDropped)
attr title "packet drops: interface down, sum(packetBytes)"
scalar LoRaNetworkTest.gwRouter.eth[1] packetDropNoCarrier:count 0
attr interpolationmode none
attr recordingmode count
attr source packetDropReasonIsNoCarrier(packetDropped)
attr title "packet drops: no carrier, count"
scalar LoRaNetworkTest.gwRouter.eth[1] packetDropNoCarrier:sum(packetBytes) 0
attr interpolationmode none
attr recordingmode sum(packetBytes)
attr source packetDropReasonIsNoCarrier(packetDropped)
attr title "packet drops: no carrier, sum(packetBytes)"
par LoRaNetworkTest.gwRouter.ipv4.transportIn.channel typename "\"ned.IdealChannel\""
par LoRaNetworkTest.gwRouter.ipv4.up.out[0].channel typename "\"ned.IdealChannel\""
par LoRaNetworkTest.gwRouter.ipv4.lp.out[2].channel typename "\"ned.IdealChannel\""
par LoRaNetworkTest.gwRouter.ipv4.ifIn.channel typename "\"ned.IdealChannel\""
par LoRaNetworkTest.gwRouter.ipv4.configurator typename "\"inet.networklayer.configurator.ipv4.Ipv4NodeConfigurator\""
par LoRaNetworkTest.gwRouter.ipv4.configurator interfaceTableModule "\"LoRaNetworkTest.gwRouter.interfaceTable\""
par LoRaNetworkTest.gwRouter.ipv4.configurator routingTableModule "\"LoRaNetworkTest.gwRouter.ipv4.routingTable\""
par LoRaNetworkTest.gwRouter.ipv4.configurator networkConfiguratorModule "\"configurator\""
par LoRaNetworkTest.gwRouter.ipv4.configurator configureRoutingTable true
par LoRaNetworkTest.gwRouter.ipv4.routingTable typename "\"inet.networklayer.ipv4.Ipv4RoutingTable\""
par LoRaNetworkTest.gwRouter.ipv4.routingTable interfaceTableModule "\"LoRaNetworkTest.gwRouter.interfaceTable\""
par LoRaNetworkTest.gwRouter.ipv4.routingTable routerId "\"auto\""
par LoRaNetworkTest.gwRouter.ipv4.routingTable netmaskRoutes "\"*\""
par LoRaNetworkTest.gwRouter.ipv4.routingTable forwarding true
par LoRaNetworkTest.gwRouter.ipv4.routingTable multicastForwarding false
par LoRaNetworkTest.gwRouter.ipv4.routingTable useAdminDist false
par LoRaNetworkTest.gwRouter.ipv4.routingTable routingFile "\"\""
par LoRaNetworkTest.gwRouter.ipv4.natTable typename "\"inet.networklayer.ipv4.Ipv4NatTable\""
par LoRaNetworkTest.gwRouter.ipv4.natTable networkProtocolModule "\"^.ip\""
par LoRaNetworkTest.gwRouter.ipv4.natTable config "<config/> at content:1"
par LoRaNetworkTest.gwRouter.ipv4.up typename "\"inet.common.MessageDispatcher\""
par LoRaNetworkTest.gwRouter.ipv4.up displayStringTextFormat "\"processed %p pk (%l)\""
par LoRaNetworkTest.gwRouter.ipv4.up forwardServiceRegistration true
par LoRaNetworkTest.gwRouter.ipv4.up forwardProtocolRegistration true
par LoRaNetworkTest.gwRouter.ipv4.igmp typename "\"inet.networklayer.ipv4.Igmpv2\""
par LoRaNetworkTest.gwRouter.ipv4.igmp interfaceTableModule "\"LoRaNetworkTest.gwRouter.interfaceTable\""
par LoRaNetworkTest.gwRouter.ipv4.igmp routingTableModule "\"LoRaNetworkTest.gwRouter.ipv4.routingTable\""
par LoRaNetworkTest.gwRouter.ipv4.igmp crcMode "\"declared\""
attr enum declared,computed
par LoRaNetworkTest.gwRouter.ipv4.igmp enabled true
par LoRaNetworkTest.gwRouter.ipv4.igmp robustnessVariable 2
par LoRaNetworkTest.gwRouter.ipv4.igmp queryInterval 125s
attr unit s
par LoRaNetworkTest.gwRouter.ipv4.igmp queryResponseInterval 10s
attr unit s
par LoRaNetworkTest.gwRouter.ipv4.igmp groupMembershipInterval 260s
attr unit s
par LoRaNetworkTest.gwRouter.ipv4.igmp otherQuerierPresentInterval 255s
attr unit s
par LoRaNetworkTest.gwRouter.ipv4.igmp startupQueryInterval 31.25s
attr unit s
par LoRaNetworkTest.gwRouter.ipv4.igmp startupQueryCount 2
par LoRaNetworkTest.gwRouter.ipv4.igmp lastMemberQueryInterval 1s
attr unit s
par LoRaNetworkTest.gwRouter.ipv4.igmp lastMemberQueryCount 2
par LoRaNetworkTest.gwRouter.ipv4.igmp unsolicitedReportInterval 10s
attr unit s
par LoRaNetworkTest.gwRouter.ipv4.icmp typename "\"inet.networklayer.ipv4.Icmp\""
par LoRaNetworkTest.gwRouter.ipv4.icmp interfaceTableModule "\"LoRaNetworkTest.gwRouter.interfaceTable\""
par LoRaNetworkTest.gwRouter.ipv4.icmp routingTableModule "\"LoRaNetworkTest.gwRouter.ipv4.routingTable\""
par LoRaNetworkTest.gwRouter.ipv4.icmp crcMode "\"declared\""
attr enum declared,computed
attr mutable ""
par LoRaNetworkTest.gwRouter.ipv4.icmp quoteLength 8B
attr mutable ""
attr unit B
par LoRaNetworkTest.gwRouter.ipv4.mp typename "\"inet.common.MessageDispatcher\""
par LoRaNetworkTest.gwRouter.ipv4.mp displayStringTextFormat "\"processed %p pk (%l)\""
par LoRaNetworkTest.gwRouter.ipv4.mp forwardServiceRegistration true
par LoRaNetworkTest.gwRouter.ipv4.mp forwardProtocolRegistration true
par LoRaNetworkTest.gwRouter.ipv4.ip typename "\"inet.networklayer.ipv4.Ipv4\""
par LoRaNetworkTest.gwRouter.ipv4.ip interfaceTableModule "\"LoRaNetworkTest.gwRouter.interfaceTable\""
par LoRaNetworkTest.gwRouter.ipv4.ip routingTableModule "\"LoRaNetworkTest.gwRouter.ipv4.routingTable\""
par LoRaNetworkTest.gwRouter.ipv4.ip arpModule "\"LoRaNetworkTest.gwRouter.ipv4.arp\""
par LoRaNetworkTest.gwRouter.ipv4.ip icmpModule "\"LoRaNetworkTest.gwRouter.ipv4.icmp\""
par LoRaNetworkTest.gwRouter.ipv4.ip crcMode "\"declared\""
attr enum declared,computed
par LoRaNetworkTest.gwRouter.ipv4.ip timeToLive 32
par LoRaNetworkTest.gwRouter.ipv4.ip multicastTimeToLive 32
par LoRaNetworkTest.gwRouter.ipv4.ip fragmentTimeout 60s
attr unit s
par LoRaNetworkTest.gwRouter.ipv4.ip limitedBroadcast false
par LoRaNetworkTest.gwRouter.ipv4.ip directBroadcastInterfaces "\"\""
scalar LoRaNetworkTest.gwRouter.ipv4.ip packetDropAddressResolutionFailed:count 0
attr interpolationmode none
attr recordingmode count
attr source packetDropReasonIsAddressResolutionFailed(packetDropped)
attr title "packet drop: address resolution failed, count"
scalar LoRaNetworkTest.gwRouter.ipv4.ip packetDropAddressResolutionFailed:sum(packetBytes) 0
attr interpolationmode none
attr recordingmode sum(packetBytes)
attr source packetDropReasonIsAddressResolutionFailed(packetDropped)
attr title "packet drop: address resolution failed, sum(packetBytes)"
scalar LoRaNetworkTest.gwRouter.ipv4.ip packetDropHopLimitReached:count 0
attr interpolationmode none
attr recordingmode count
attr source packetDropReasonIsHopLimitReached(packetDropped)
attr title "packet drop: hop limit reached, count"
scalar LoRaNetworkTest.gwRouter.ipv4.ip packetDropHopLimitReached:sum(packetBytes) 0
attr interpolationmode none
attr recordingmode sum(packetBytes)
attr source packetDropReasonIsHopLimitReached(packetDropped)
attr title "packet drop: hop limit reached, sum(packetBytes)"
scalar LoRaNetworkTest.gwRouter.ipv4.ip packetDropForwardingDisabled:count 0
attr interpolationmode none
attr recordingmode count
attr source packetDropReasonIsForwardingDisabled(packetDropped)
attr title "packet drop: forwarding disabled, count"
scalar LoRaNetworkTest.gwRouter.ipv4.ip packetDropForwardingDisabled:sum(packetBytes) 0
attr interpolationmode none
attr recordingmode sum(packetBytes)
attr source packetDropReasonIsForwardingDisabled(packetDropped)
attr title "packet drop: forwarding disabled, sum(packetBytes)"
scalar LoRaNetworkTest.gwRouter.ipv4.ip packetDropNoInterfaceFound:count 0
attr interpolationmode none
attr recordingmode count
attr source packetDropReasonIsNoInterfaceFound(packetDropped)
attr title "packet drop: no interface found, count"
scalar LoRaNetworkTest.gwRouter.ipv4.ip packetDropNoInterfaceFound:sum(packetBytes) 0
attr interpolationmode none
attr recordingmode sum(packetBytes)
attr source packetDropReasonIsNoInterfaceFound(packetDropped)
attr title "packet drop: no interface found, sum(packetBytes)"
scalar LoRaNetworkTest.gwRouter.ipv4.ip packetDropNoRouteFound:count 0
attr interpolationmode none
attr recordingmode count
attr source packetDropReasonIsNoRouteFound(packetDropped)
attr title "packet drop: no route found, count"
scalar LoRaNetworkTest.gwRouter.ipv4.ip packetDropNoRouteFound:sum(packetBytes) 0
attr interpolationmode none
attr recordingmode sum(packetBytes)
attr source packetDropReasonIsNoRouteFound(packetDropped)
attr title "packet drop: no route found, sum(packetBytes)"
scalar LoRaNetworkTest.gwRouter.ipv4.ip packetDropUndefined:count 0
attr interpolationmode none
attr recordingmode count
attr source packetDropReasonIsUndefined(packetDropped)
attr title "packet drop: undefined, count"
scalar LoRaNetworkTest.gwRouter.ipv4.ip packetDropUndefined:sum(packetBytes) 0
attr interpolationmode none
attr recordingmode sum(packetBytes)
attr source packetDropReasonIsUndefined(packetDropped)
attr title "packet drop: undefined, sum(packetBytes)"
par LoRaNetworkTest.gwRouter.ipv4.arp typename "\"inet.networklayer.arp.ipv4.Arp\""
par LoRaNetworkTest.gwRouter.ipv4.arp interfaceTableModule "\"LoRaNetworkTest.gwRouter.interfaceTable\""
par LoRaNetworkTest.gwRouter.ipv4.arp routingTableModule "\"LoRaNetworkTest.gwRouter.ipv4.routingTable\""
par LoRaNetworkTest.gwRouter.ipv4.arp retryTimeout 1s
attr unit s
par LoRaNetworkTest.gwRouter.ipv4.arp retryCount 3
par LoRaNetworkTest.gwRouter.ipv4.arp cacheTimeout 120s
attr unit s
par LoRaNetworkTest.gwRouter.ipv4.arp proxyArpInterfaces "\"*\""
scalar LoRaNetworkTest.gwRouter.ipv4.arp arpResolutionFailed:count 0
attr recordingmode count
attr title "ARP failed resolutions, count"
scalar LoRaNetworkTest.gwRouter.ipv4.arp arpResolutionCompleted:count 1400
attr recordingmode count
attr title "ARP completed resolutions, count"
scalar LoRaNetworkTest.gwRouter.ipv4.arp arpResolutionInitiated:count 700
attr recordingmode count
attr title "ARP initiated resolutions, count"
scalar LoRaNetworkTest.gwRouter.ipv4.arp arpReplySent:count 700
attr recordingmode count
attr source arpReplySent
attr title "ARP replies sent, count"
scalar LoRaNetworkTest.gwRouter.ipv4.arp arpReplySent:sum(packetBytes) 19600
attr recordingmode sum(packetBytes)
attr source arpReplySent
attr title "ARP replies sent, sum(packetBytes)"
scalar LoRaNetworkTest.gwRouter.ipv4.arp arpRequestSent:count 700
attr recordingmode count
attr source arpRequestSent
attr title "ARP request sent, count"
scalar LoRaNetworkTest.gwRouter.ipv4.arp arpRequestSent:sum(packetBytes) 19600
attr recordingmode sum(packetBytes)
attr source arpRequestSent
attr title "ARP request sent, sum(packetBytes)"
par LoRaNetworkTest.gwRouter.ipv4.lp typename "\"inet.common.MessageDispatcher\""
par LoRaNetworkTest.gwRouter.ipv4.lp displayStringTextFormat "\"processed %p pk (%l)\""
par LoRaNetworkTest.gwRouter.ipv4.lp forwardServiceRegistration true
par LoRaNetworkTest.gwRouter.ipv4.lp forwardProtocolRegistration true
par LoRaNetworkTest.gwRouter.ipv4 typename "\"inet.networklayer.ipv4.Ipv4NetworkLayer\""
par LoRaNetworkTest.gwRouter.ipv4 forwarding true
par LoRaNetworkTest.gwRouter.ipv4 multicastForwarding false
par LoRaNetworkTest.gwRouter.ipv4 interfaceTableModule "\"LoRaNetworkTest.gwRouter.interfaceTable\""
par LoRaNetworkTest.gwRouter.ipv4 displayStringTextFormat "\"%i\""
par LoRaNetworkTest.gwRouter.nl typename "\"inet.common.MessageDispatcher\""
par LoRaNetworkTest.gwRouter.nl displayStringTextFormat "\"processed %p pk (%l)\""
par LoRaNetworkTest.gwRouter.nl forwardServiceRegistration true
par LoRaNetworkTest.gwRouter.nl forwardProtocolRegistration true
par LoRaNetworkTest.gwRouter.tn typename "\"inet.common.MessageDispatcher\""
par LoRaNetworkTest.gwRouter.tn displayStringTextFormat "\"processed %p pk (%l)\""
par LoRaNetworkTest.gwRouter.tn forwardServiceRegistration true
par LoRaNetworkTest.gwRouter.tn forwardProtocolRegistration true
par LoRaNetworkTest.gwRouter.at typename "\"inet.common.MessageDispatcher\""
par LoRaNetworkTest.gwRouter.at displayStringTextFormat "\"processed %p pk (%l)\""
par LoRaNetworkTest.gwRouter.at forwardServiceRegistration true
par LoRaNetworkTest.gwRouter.at forwardProtocolRegistration true
par LoRaNetworkTest.gwRouter typename "\"inet.node.inet.Router\""
par LoRaNetworkTest.gwRouter hasStatus false
par LoRaNetworkTest.gwRouter osgModel "\"\""
par LoRaNetworkTest.gwRouter osgModelColor "\"\""
par LoRaNetworkTest.gwRouter canvasImage "\"\""
par LoRaNetworkTest.gwRouter canvasImageColor "\"\""
par LoRaNetworkTest.gwRouter recordPcap false
par LoRaNetworkTest.gwRouter numPcapRecorders 0
par LoRaNetworkTest.gwRouter numLoInterfaces 1
par LoRaNetworkTest.gwRouter numWlanInterfaces 0
par LoRaNetworkTest.gwRouter numEthInterfaces 0
par LoRaNetworkTest.gwRouter numPppInterfaces 0
par LoRaNetworkTest.gwRouter numTunInterfaces 0
par LoRaNetworkTest.gwRouter numVirtInterfaces 0
par LoRaNetworkTest.gwRouter fcsMode "\"declared\""
attr enum declared,computed
par LoRaNetworkTest.gwRouter hasIpv4 true
par LoRaNetworkTest.gwRouter hasIpv6 false
par LoRaNetworkTest.gwRouter hasGn false
par LoRaNetworkTest.gwRouter forwarding true
par LoRaNetworkTest.gwRouter multicastForwarding false
par LoRaNetworkTest.gwRouter hasUdp false
par LoRaNetworkTest.gwRouter hasTcp false
par LoRaNetworkTest.gwRouter hasSctp false
par LoRaNetworkTest.gwRouter numApps 0
par LoRaNetworkTest.gwRouter hasEigrp false
par LoRaNetworkTest.gwRouter hasOspf false
par LoRaNetworkTest.gwRouter hasRip false
par LoRaNetworkTest.gwRouter hasBgp false
par LoRaNetworkTest.gwRouter hasPim false
par LoRaNetworkTest.gwRouter hasDhcp false
par LoRaNetworkTest typename "\"test2.LoRaNetworkTest\""
par LoRaNetworkTest numPatients 100

