version 3
run N20-6-20260518-02:26:34-159846
attr configname N20
attr datetime 20260518-02:26:34
attr datetimef 20260518-022634
attr experiment N20
attr inifile omnetpp.ini
attr iterationvars "$0=\"avg\""
attr iterationvarsd avg
attr iterationvarsf avg-
attr measurement "$0=\"avg\""
attr network test2.LoRaNetworkTest
attr processid 159846
attr repetition 6
attr replication #6
attr resultdir results
attr runnumber 6
attr seedset 6
config extends General
config **.numPatients 20
config network test2.LoRaNetworkTest
config sim-time-limit 1h
config warmup-period 60s
config simtime-resolution -11
config repeat 30
config rng-class cMersenneTwister
config record-eventlog false
config **.numPatients 20
config **.HospitalServer.app[0].queueLength:vector.vector-recording true
config **.HospitalServer.app[0].urgentWaitTime:vector.vector-recording true
config **.HospitalServer.app[0].normalWaitTime:vector.vector-recording true
config **.HospitalServer.app[0].urgentEndToEndDelay:vector.vector-recording true
config **.HospitalServer.app[0].normalEndToEndDelay:vector.vector-recording true
config **.loRaNodes[*].app[0].emergencyVariate:vector.vector-recording true
config **.vector-recording false
config **.loRaNodes[0].**.initialX "300m + uniform(-10m, 10m)"
config **.loRaNodes[0].**.initialY "250m + uniform(-8m, 8m)"
config **.loRaNodes[1].**.initialX "450m + uniform(-10m, 10m)"
config **.loRaNodes[1].**.initialY "250m + uniform(-8m, 8m)"
config **.loRaNodes[2].**.initialX "600m + uniform(-10m, 10m)"
config **.loRaNodes[2].**.initialY "250m + uniform(-8m, 8m)"
config **.loRaNodes[3].**.initialX "750m + uniform(-10m, 10m)"
config **.loRaNodes[3].**.initialY "250m + uniform(-8m, 8m)"
config **.loRaNodes[4].**.initialX "900m + uniform(-10m, 10m)"
config **.loRaNodes[4].**.initialY "250m + uniform(-8m, 8m)"
config **.loRaNodes[5].**.initialX "1050m + uniform(-10m, 10m)"
config **.loRaNodes[5].**.initialY "250m + uniform(-8m, 8m)"
config **.loRaNodes[6].**.initialX "1200m + uniform(-10m, 10m)"
config **.loRaNodes[6].**.initialY "250m + uniform(-8m, 8m)"
config **.loRaNodes[7].**.initialX "1350m + uniform(-10m, 10m)"
config **.loRaNodes[7].**.initialY "250m + uniform(-8m, 8m)"
config **.loRaNodes[8].**.initialX "1500m + uniform(-10m, 10m)"
config **.loRaNodes[8].**.initialY "250m + uniform(-8m, 8m)"
config **.loRaNodes[9].**.initialX "1650m + uniform(-10m, 10m)"
config **.loRaNodes[9].**.initialY "250m + uniform(-8m, 8m)"
config **.loRaNodes[10].**.initialX "300m + uniform(-10m, 10m)"
config **.loRaNodes[10].**.initialY "370m + uniform(-8m, 8m)"
config **.loRaNodes[11].**.initialX "450m + uniform(-10m, 10m)"
config **.loRaNodes[11].**.initialY "370m + uniform(-8m, 8m)"
config **.loRaNodes[12].**.initialX "600m + uniform(-10m, 10m)"
config **.loRaNodes[12].**.initialY "370m + uniform(-8m, 8m)"
config **.loRaNodes[13].**.initialX "750m + uniform(-10m, 10m)"
config **.loRaNodes[13].**.initialY "370m + uniform(-8m, 8m)"
config **.loRaNodes[14].**.initialX "900m + uniform(-10m, 10m)"
config **.loRaNodes[14].**.initialY "370m + uniform(-8m, 8m)"
config **.loRaNodes[15].**.initialX "1050m + uniform(-10m, 10m)"
config **.loRaNodes[15].**.initialY "370m + uniform(-8m, 8m)"
config **.loRaNodes[16].**.initialX "1200m + uniform(-10m, 10m)"
config **.loRaNodes[16].**.initialY "370m + uniform(-8m, 8m)"
config **.loRaNodes[17].**.initialX "1350m + uniform(-10m, 10m)"
config **.loRaNodes[17].**.initialY "370m + uniform(-8m, 8m)"
config **.loRaNodes[18].**.initialX "1500m + uniform(-10m, 10m)"
config **.loRaNodes[18].**.initialY "370m + uniform(-8m, 8m)"
config **.loRaNodes[19].**.initialX "1650m + uniform(-10m, 10m)"
config **.loRaNodes[19].**.initialY "370m + uniform(-8m, 8m)"
config **.loRaNodes[20].**.initialX "300m + uniform(-10m, 10m)"
config **.loRaNodes[20].**.initialY "490m + uniform(-8m, 8m)"
config **.loRaNodes[21].**.initialX "450m + uniform(-10m, 10m)"
config **.loRaNodes[21].**.initialY "490m + uniform(-8m, 8m)"
config **.loRaNodes[22].**.initialX "600m + uniform(-10m, 10m)"
config **.loRaNodes[22].**.initialY "490m + uniform(-8m, 8m)"
config **.loRaNodes[23].**.initialX "750m + uniform(-10m, 10m)"
config **.loRaNodes[23].**.initialY "490m + uniform(-8m, 8m)"
config **.loRaNodes[24].**.initialX "900m + uniform(-10m, 10m)"
config **.loRaNodes[24].**.initialY "490m + uniform(-8m, 8m)"
config **.loRaNodes[25].**.initialX "1050m + uniform(-10m, 10m)"
config **.loRaNodes[25].**.initialY "490m + uniform(-8m, 8m)"
config **.loRaNodes[26].**.initialX "1200m + uniform(-10m, 10m)"
config **.loRaNodes[26].**.initialY "490m + uniform(-8m, 8m)"
config **.loRaNodes[27].**.initialX "1350m + uniform(-10m, 10m)"
config **.loRaNodes[27].**.initialY "490m + uniform(-8m, 8m)"
config **.loRaNodes[28].**.initialX "1500m + uniform(-10m, 10m)"
config **.loRaNodes[28].**.initialY "490m + uniform(-8m, 8m)"
config **.loRaNodes[29].**.initialX "1650m + uniform(-10m, 10m)"
config **.loRaNodes[29].**.initialY "490m + uniform(-8m, 8m)"
config **.loRaNodes[30].**.initialX "300m + uniform(-10m, 10m)"
config **.loRaNodes[30].**.initialY "610m + uniform(-8m, 8m)"
config **.loRaNodes[31].**.initialX "450m + uniform(-10m, 10m)"
config **.loRaNodes[31].**.initialY "610m + uniform(-8m, 8m)"
config **.loRaNodes[32].**.initialX "600m + uniform(-10m, 10m)"
config **.loRaNodes[32].**.initialY "610m + uniform(-8m, 8m)"
config **.loRaNodes[33].**.initialX "750m + uniform(-10m, 10m)"
config **.loRaNodes[33].**.initialY "610m + uniform(-8m, 8m)"
config **.loRaNodes[34].**.initialX "900m + uniform(-10m, 10m)"
config **.loRaNodes[34].**.initialY "610m + uniform(-8m, 8m)"
config **.loRaNodes[35].**.initialX "1050m + uniform(-10m, 10m)"
config **.loRaNodes[35].**.initialY "610m + uniform(-8m, 8m)"
config **.loRaNodes[36].**.initialX "1200m + uniform(-10m, 10m)"
config **.loRaNodes[36].**.initialY "610m + uniform(-8m, 8m)"
config **.loRaNodes[37].**.initialX "1350m + uniform(-10m, 10m)"
config **.loRaNodes[37].**.initialY "610m + uniform(-8m, 8m)"
config **.loRaNodes[38].**.initialX "1500m + uniform(-10m, 10m)"
config **.loRaNodes[38].**.initialY "610m + uniform(-8m, 8m)"
config **.loRaNodes[39].**.initialX "1650m + uniform(-10m, 10m)"
config **.loRaNodes[39].**.initialY "610m + uniform(-8m, 8m)"
config **.loRaNodes[40].**.initialX "300m + uniform(-10m, 10m)"
config **.loRaNodes[40].**.initialY "730m + uniform(-8m, 8m)"
config **.loRaNodes[41].**.initialX "450m + uniform(-10m, 10m)"
config **.loRaNodes[41].**.initialY "730m + uniform(-8m, 8m)"
config **.loRaNodes[42].**.initialX "600m + uniform(-10m, 10m)"
config **.loRaNodes[42].**.initialY "730m + uniform(-8m, 8m)"
config **.loRaNodes[43].**.initialX "750m + uniform(-10m, 10m)"
config **.loRaNodes[43].**.initialY "730m + uniform(-8m, 8m)"
config **.loRaNodes[44].**.initialX "900m + uniform(-10m, 10m)"
config **.loRaNodes[44].**.initialY "730m + uniform(-8m, 8m)"
config **.loRaNodes[45].**.initialX "1050m + uniform(-10m, 10m)"
config **.loRaNodes[45].**.initialY "730m + uniform(-8m, 8m)"
config **.loRaNodes[46].**.initialX "1200m + uniform(-10m, 10m)"
config **.loRaNodes[46].**.initialY "730m + uniform(-8m, 8m)"
config **.loRaNodes[47].**.initialX "1350m + uniform(-10m, 10m)"
config **.loRaNodes[47].**.initialY "730m + uniform(-8m, 8m)"
config **.loRaNodes[48].**.initialX "1500m + uniform(-10m, 10m)"
config **.loRaNodes[48].**.initialY "730m + uniform(-8m, 8m)"
config **.loRaNodes[49].**.initialX "1650m + uniform(-10m, 10m)"
config **.loRaNodes[49].**.initialY "730m + uniform(-8m, 8m)"
config **.loRaNodes[50].**.initialX "300m + uniform(-10m, 10m)"
config **.loRaNodes[50].**.initialY "850m + uniform(-8m, 8m)"
config **.loRaNodes[51].**.initialX "450m + uniform(-10m, 10m)"
config **.loRaNodes[51].**.initialY "850m + uniform(-8m, 8m)"
config **.loRaNodes[52].**.initialX "600m + uniform(-10m, 10m)"
config **.loRaNodes[52].**.initialY "850m + uniform(-8m, 8m)"
config **.loRaNodes[53].**.initialX "750m + uniform(-10m, 10m)"
config **.loRaNodes[53].**.initialY "850m + uniform(-8m, 8m)"
config **.loRaNodes[54].**.initialX "900m + uniform(-10m, 10m)"
config **.loRaNodes[54].**.initialY "850m + uniform(-8m, 8m)"
config **.loRaNodes[55].**.initialX "1050m + uniform(-10m, 10m)"
config **.loRaNodes[55].**.initialY "850m + uniform(-8m, 8m)"
config **.loRaNodes[56].**.initialX "1200m + uniform(-10m, 10m)"
config **.loRaNodes[56].**.initialY "850m + uniform(-8m, 8m)"
config **.loRaNodes[57].**.initialX "1350m + uniform(-10m, 10m)"
config **.loRaNodes[57].**.initialY "850m + uniform(-8m, 8m)"
config **.loRaNodes[58].**.initialX "1500m + uniform(-10m, 10m)"
config **.loRaNodes[58].**.initialY "850m + uniform(-8m, 8m)"
config **.loRaNodes[59].**.initialX "1650m + uniform(-10m, 10m)"
config **.loRaNodes[59].**.initialY "850m + uniform(-8m, 8m)"
config **.loRaNodes[60].**.initialX "300m + uniform(-10m, 10m)"
config **.loRaNodes[60].**.initialY "970m + uniform(-8m, 8m)"
config **.loRaNodes[61].**.initialX "450m + uniform(-10m, 10m)"
config **.loRaNodes[61].**.initialY "970m + uniform(-8m, 8m)"
config **.loRaNodes[62].**.initialX "600m + uniform(-10m, 10m)"
config **.loRaNodes[62].**.initialY "970m + uniform(-8m, 8m)"
config **.loRaNodes[63].**.initialX "750m + uniform(-10m, 10m)"
config **.loRaNodes[63].**.initialY "970m + uniform(-8m, 8m)"
config **.loRaNodes[64].**.initialX "900m + uniform(-10m, 10m)"
config **.loRaNodes[64].**.initialY "970m + uniform(-8m, 8m)"
config **.loRaNodes[65].**.initialX "1050m + uniform(-10m, 10m)"
config **.loRaNodes[65].**.initialY "970m + uniform(-8m, 8m)"
config **.loRaNodes[66].**.initialX "1200m + uniform(-10m, 10m)"
config **.loRaNodes[66].**.initialY "970m + uniform(-8m, 8m)"
config **.loRaNodes[67].**.initialX "1350m + uniform(-10m, 10m)"
config **.loRaNodes[67].**.initialY "970m + uniform(-8m, 8m)"
config **.loRaNodes[68].**.initialX "1500m + uniform(-10m, 10m)"
config **.loRaNodes[68].**.initialY "970m + uniform(-8m, 8m)"
config **.loRaNodes[69].**.initialX "1650m + uniform(-10m, 10m)"
config **.loRaNodes[69].**.initialY "970m + uniform(-8m, 8m)"
config **.loRaNodes[70].**.initialX "300m + uniform(-10m, 10m)"
config **.loRaNodes[70].**.initialY "1090m + uniform(-8m, 8m)"
config **.loRaNodes[71].**.initialX "450m + uniform(-10m, 10m)"
config **.loRaNodes[71].**.initialY "1090m + uniform(-8m, 8m)"
config **.loRaNodes[72].**.initialX "600m + uniform(-10m, 10m)"
config **.loRaNodes[72].**.initialY "1090m + uniform(-8m, 8m)"
config **.loRaNodes[73].**.initialX "750m + uniform(-10m, 10m)"
config **.loRaNodes[73].**.initialY "1090m + uniform(-8m, 8m)"
config **.loRaNodes[74].**.initialX "900m + uniform(-10m, 10m)"
config **.loRaNodes[74].**.initialY "1090m + uniform(-8m, 8m)"
config **.HospitalServer.numApps 1
config **.HospitalServer.app[0].typename HospitalServerApp
config **.HospitalServer.app[0].destPort 2000
config **.HospitalServer.app[0].localPort 1000
config **.HospitalServer.app[0].adrMethod "\"avg\""
config **.HospitalServer.**.evaluateADRinServer true
config **.HospitalServer.app[0].queueSize 50
config **.HospitalServer.app[0].expo_rate_lambda 0.83
config **.loRaGateway.numUdpApps 1
config **.loRaGateway.packetForwarder.localPort 2000
config **.loRaGateway.packetForwarder.destPort 1000
config **.loRaGateway.packetForwarder.destAddresses "\"HospitalServer\""
config **.loRaGateway.**.initFromDisplayString false
config **.loRaGateway.**.initialX 544.00m
config **.loRaGateway.**.initialY 544.00m
config **.loRaNodes[*].numApps 1
config **.loRaNodes[*].app[0].typename PatientSensorApp
config **.loRaNodes[*].app[0].expo_rate_lambda 0.00175
config **.loRaNodes[*].app[0].emergencyThreshold 50
config **.loRaNodes[*].**.timeToFirstPacket exponential(24s)
config **.loRaNodes[*].**.timeToNextPacket exponential(24s)
config **.loRaNodes[*].**.numberOfPacketsToSend 0
config **.loRaNodes[*].**initialLoRaSF 12
config **.loRaNodes[*].**initialLoRaTP 14dBm
config **.loRaNodes[*].**initialLoRaBW "125 kHz"
config **.loRaNodes[*].**initialLoRaCR 4
config **.loRaNodes[*].**.initFromDisplayString false
config **.loRaNodes[*].**.evaluateADRinNode true
config **.loRaNodes[*].LoRaNic.radio.energyConsumer.typename LoRaEnergyConsumer
config **.loRaNodes[*].**.energySourceModule "\"^.IdealEpEnergyStorage\""
config **.loRaNodes[*].LoRaNic.radio.energyConsumer.configFile "xmldoc(\"energyConsumptionParam.xml\")"
config **.maxTransmissionDuration 4s
config **.energyDetection -110dBm
config **.radio.radioMediumModule "\"LoRaMedium\""
config **.minInterferenceTime 0s
config **.constraintAreaMinX 0m
config **.constraintAreaMinY 0m
config **.constraintAreaMinZ 0m
config **.constraintAreaMaxZ 0m
config **.constraintAreaMaxX 3000.0m
config **.constraintAreaMaxY 3000.0m

par LoRaNetworkTest.gwRouter.ethg$o[0].channel typename "\"inet.node.ethernet.Eth1G\""
par LoRaNetworkTest.gwRouter.ethg$o[0].channel disabled false
attr mutable ""
par LoRaNetworkTest.gwRouter.ethg$o[0].channel delay 5e-08s
attr mutable ""
attr unit s
par LoRaNetworkTest.gwRouter.ethg$o[0].channel datarate 1e+09bps
attr mutable ""
attr unit bps
par LoRaNetworkTest.gwRouter.ethg$o[0].channel ber 0
attr mutable ""
par LoRaNetworkTest.gwRouter.ethg$o[0].channel per 0
attr mutable ""
par LoRaNetworkTest.gwRouter.ethg$o[0].channel length 10m
attr unit m
par LoRaNetworkTest.loRaGateway.ethg$o[0].channel typename "\"inet.node.ethernet.Eth1G\""
par LoRaNetworkTest.loRaGateway.ethg$o[0].channel disabled false
attr mutable ""
par LoRaNetworkTest.loRaGateway.ethg$o[0].channel delay 5e-08s
attr mutable ""
attr unit s
par LoRaNetworkTest.loRaGateway.ethg$o[0].channel datarate 1e+09bps
attr mutable ""
attr unit bps
par LoRaNetworkTest.loRaGateway.ethg$o[0].channel ber 0
attr mutable ""
par LoRaNetworkTest.loRaGateway.ethg$o[0].channel per 0
attr mutable ""
par LoRaNetworkTest.loRaGateway.ethg$o[0].channel length 10m
attr unit m
par LoRaNetworkTest.gwRouter.ethg$o[1].channel typename "\"inet.node.ethernet.Eth1G\""
par LoRaNetworkTest.gwRouter.ethg$o[1].channel disabled false
attr mutable ""
par LoRaNetworkTest.gwRouter.ethg$o[1].channel delay 5e-08s
attr mutable ""
attr unit s
par LoRaNetworkTest.gwRouter.ethg$o[1].channel datarate 1e+09bps
attr mutable ""
attr unit bps
par LoRaNetworkTest.gwRouter.ethg$o[1].channel ber 0
attr mutable ""
par LoRaNetworkTest.gwRouter.ethg$o[1].channel per 0
attr mutable ""
par LoRaNetworkTest.gwRouter.ethg$o[1].channel length 10m
attr unit m
par LoRaNetworkTest.HospitalServer.ethg$o[0].channel typename "\"inet.node.ethernet.Eth1G\""
par LoRaNetworkTest.HospitalServer.ethg$o[0].channel disabled false
attr mutable ""
par LoRaNetworkTest.HospitalServer.ethg$o[0].channel delay 5e-08s
attr mutable ""
attr unit s
par LoRaNetworkTest.HospitalServer.ethg$o[0].channel datarate 1e+09bps
attr mutable ""
attr unit bps
par LoRaNetworkTest.HospitalServer.ethg$o[0].channel ber 0
attr mutable ""
par LoRaNetworkTest.HospitalServer.ethg$o[0].channel per 0
attr mutable ""
par LoRaNetworkTest.HospitalServer.ethg$o[0].channel length 10m
attr unit m
par LoRaNetworkTest.loRaNodes[0].interfaceTable typename "\"inet.networklayer.common.InterfaceTable\""
par LoRaNetworkTest.loRaNodes[0].interfaceTable displayAddresses false
par LoRaNetworkTest.loRaNodes[0].mobility typename "\"inet.mobility.static.StationaryMobility\""
par LoRaNetworkTest.loRaNodes[0].mobility subjectModule "\"^\""
par LoRaNetworkTest.loRaNodes[0].mobility coordinateSystemModule "\"\""
par LoRaNetworkTest.loRaNodes[0].mobility displayStringTextFormat "\"p: %p\\nv: %v\""
attr mutable ""
par LoRaNetworkTest.loRaNodes[0].mobility updateDisplayString true
par LoRaNetworkTest.loRaNodes[0].mobility constraintAreaMinX 0m
attr unit m
par LoRaNetworkTest.loRaNodes[0].mobility constraintAreaMinY 0m
attr unit m
par LoRaNetworkTest.loRaNodes[0].mobility constraintAreaMinZ 0m
attr unit m
par LoRaNetworkTest.loRaNodes[0].mobility constraintAreaMaxX 3000m
attr unit m
par LoRaNetworkTest.loRaNodes[0].mobility constraintAreaMaxY 3000m
attr unit m
par LoRaNetworkTest.loRaNodes[0].mobility constraintAreaMaxZ 0m
attr unit m
par LoRaNetworkTest.loRaNodes[0].mobility initialX 307.857m
attr unit m
par LoRaNetworkTest.loRaNodes[0].mobility initialY 257.16m
attr unit m
par LoRaNetworkTest.loRaNodes[0].mobility initialZ 0m
attr unit m
par LoRaNetworkTest.loRaNodes[0].mobility initialLatitude "nan deg"
attr unit deg
par LoRaNetworkTest.loRaNodes[0].mobility initialLongitude "nan deg"
attr unit deg
par LoRaNetworkTest.loRaNodes[0].mobility initialAltitude 0m
attr unit m
par LoRaNetworkTest.loRaNodes[0].mobility initialHeading 0deg
attr unit deg
par LoRaNetworkTest.loRaNodes[0].mobility initialElevation 0deg
attr unit deg
par LoRaNetworkTest.loRaNodes[0].mobility initialBank 0deg
attr unit deg
par LoRaNetworkTest.loRaNodes[0].mobility initFromDisplayString false
par LoRaNetworkTest.loRaNodes[0].mobility updateFromDisplayString true
par LoRaNetworkTest.loRaNodes[0].LoRaNic.radioIn.channel typename "\"ned.IdealChannel\""
par LoRaNetworkTest.loRaNodes[0].LoRaNic.mac.upperLayerOut.channel typename "\"ned.IdealChannel\""
par LoRaNetworkTest.loRaNodes[0].LoRaNic.upperLayerIn.channel typename "\"ned.IdealChannel\""
par LoRaNetworkTest.loRaNodes[0].LoRaNic.queue typename "\"inet.queueing.queue.DropTailQueue\""
par LoRaNetworkTest.loRaNodes[0].LoRaNic.queue displayStringTextFormat "\"contains %p pk (%l) pushed %u\\npulled %o removed %r dropped %d\""
par LoRaNetworkTest.loRaNodes[0].LoRaNic.queue packetCapacity -1
par LoRaNetworkTest.loRaNodes[0].LoRaNic.queue dataCapacity -1b
attr unit b
par LoRaNetworkTest.loRaNodes[0].LoRaNic.queue dropperClass "\"inet::queueing::PacketAtCollectionEndDropper\""
par LoRaNetworkTest.loRaNodes[0].LoRaNic.queue comparatorClass "\"\""
par LoRaNetworkTest.loRaNodes[0].LoRaNic.queue bufferModule "\"\""
scalar LoRaNetworkTest.loRaNodes[0].LoRaNic.queue queueLength:last 0
attr autoWarmupFilter false
attr interpolationmode sample-hold
attr recordingmode last
attr source "warmup(atomic(constant0(packetPushEnded) + count(packetPushStarted) - count(packetPulled) - count(packetRemoved) - count(packetDropped)))"
attr title "queue length, last"
attr unit pk
scalar LoRaNetworkTest.loRaNodes[0].LoRaNic.queue queueLength:max 0
attr autoWarmupFilter false
attr interpolationmode sample-hold
attr recordingmode max
attr source "warmup(atomic(constant0(packetPushEnded) + count(packetPushStarted) - count(packetPulled) - count(packetRemoved) - count(packetDropped)))"
attr title "queue length, max"
attr unit pk
scalar LoRaNetworkTest.loRaNodes[0].LoRaNic.queue queueLength:timeavg 0
attr autoWarmupFilter false
attr interpolationmode sample-hold
attr recordingmode timeavg
attr source "warmup(atomic(constant0(packetPushEnded) + count(packetPushStarted) - count(packetPulled) - count(packetRemoved) - count(packetDropped)))"
attr title "queue length, timeavg"
attr unit pk
scalar LoRaNetworkTest.loRaNodes[0].LoRaNic.queue queueBitLength:last 0
attr autoWarmupFilter false
attr interpolationmode sample-hold
attr recordingmode last
attr source "warmup(atomic(constant0(packetPushEnded) + sum(packetLength(packetPushStarted)) - sum(packetLength(packetPulled)) - sum(packetLength(packetRemoved)) - sum(packetLength(packetDropped))))"
attr title "queue bit length, last"
attr unit b
scalar LoRaNetworkTest.loRaNodes[0].LoRaNic.queue queueBitLength:max 0
attr autoWarmupFilter false
attr interpolationmode sample-hold
attr recordingmode max
attr source "warmup(atomic(constant0(packetPushEnded) + sum(packetLength(packetPushStarted)) - sum(packetLength(packetPulled)) - sum(packetLength(packetRemoved)) - sum(packetLength(packetDropped))))"
attr title "queue bit length, max"
attr unit b
scalar LoRaNetworkTest.loRaNodes[0].LoRaNic.queue queueBitLength:timeavg 0
attr autoWarmupFilter false
attr interpolationmode sample-hold
attr recordingmode timeavg
attr source "warmup(atomic(constant0(packetPushEnded) + sum(packetLength(packetPushStarted)) - sum(packetLength(packetPulled)) - sum(packetLength(packetRemoved)) - sum(packetLength(packetDropped))))"
attr title "queue bit length, timeavg"
attr unit b
statistic LoRaNetworkTest.loRaNodes[0].LoRaNic.queue queueingTime:histogram
field count 16
field mean 0
field stddev 0
field min 0
field max 0
field sum 0
field sqrsum 0
attr interpolationmode none
attr recordingmode histogram
attr source queueingTime(packetPulled)
attr title "queueing times"
attr unit s
bin	-inf	0
bin	-0.5	0
bin	-0.48	0
bin	-0.46	0
bin	-0.44	0
bin	-0.42	0
bin	-0.4	0
bin	-0.38	0
bin	-0.36	0
bin	-0.34	0
bin	-0.32	0
bin	-0.3	0
bin	-0.28	0
bin	-0.26	0
bin	-0.24	0
bin	-0.22	0
bin	-0.2	0
bin	-0.18	0
bin	-0.16	0
bin	-0.14	0
bin	-0.12	0
bin	-0.1	0
bin	-0.08	0
bin	-0.06	0
bin	-0.04	0
bin	-0.02	0
bin	0	16
bin	0.02	0
bin	0.04	0
bin	0.06	0
bin	0.08	0
bin	0.1	0
bin	0.12	0
bin	0.14	0
bin	0.16	0
bin	0.18	0
bin	0.2	0
bin	0.22	0
bin	0.24	0
bin	0.26	0
bin	0.28	0
bin	0.3	0
bin	0.32	0
bin	0.34	0
bin	0.36	0
bin	0.38	0
bin	0.4	0
bin	0.42	0
bin	0.44	0
bin	0.46	0
bin	0.48	0
bin	0.5	0
scalar LoRaNetworkTest.loRaNodes[0].LoRaNic.queue outgoingPackets:count 16
attr recordingmode count
attr source packetPulled
attr title "outgoing packets, count"
attr unit pk
scalar LoRaNetworkTest.loRaNodes[0].LoRaNic.queue outgoingPacketLengths:sum 1280
attr interpolationmode none
attr recordingmode sum
attr source packetLength(packetPulled)
attr title "outgoing packet lengths, sum"
attr unit b
statistic LoRaNetworkTest.loRaNodes[0].LoRaNic.queue outgoingPacketLengths:histogram
field count 16
field mean 80
field stddev 0
field min 80
field max 80
field sum 1280
field sqrsum 102400
attr interpolationmode none
attr recordingmode histogram
attr source packetLength(packetPulled)
attr title "outgoing packet lengths"
attr unit b
bin	-inf	0
bin	79	0
bin	80	16
bin	81	0
statistic LoRaNetworkTest.loRaNodes[0].LoRaNic.queue flowQueueingTime:histogram
field count 0
field mean -nan
field stddev -nan
field min -nan
field max -nan
field sum 0
field sqrsum 0
attr interpolationmode none
attr recordingmode histogram
attr source queueingTime(demuxFlow(packetPulled))
attr title "flow queueing times"
attr unit s
bin	-inf	0
bin	0	0
bin	1	0
scalar LoRaNetworkTest.loRaNodes[0].LoRaNic.queue incomingPackets:count 16
attr recordingmode count
attr source packetPushStarted
attr title "incoming packets, count"
attr unit pk
scalar LoRaNetworkTest.loRaNodes[0].LoRaNic.queue incomingPacketLengths:sum 1280
attr interpolationmode none
attr recordingmode sum
attr source packetLength(packetPushStarted)
attr title "incoming packet lengths, sum"
attr unit b
statistic LoRaNetworkTest.loRaNodes[0].LoRaNic.queue incomingPacketLengths:histogram
field count 16
field mean 80
field stddev 0
field min 80
field max 80
field sum 1280
field sqrsum 102400
attr interpolationmode none
attr recordingmode histogram
attr source packetLength(packetPushStarted)
attr title "incoming packet lengths"
attr unit b
bin	-inf	0
bin	79	0
bin	80	16
bin	81	0
scalar LoRaNetworkTest.loRaNodes[0].LoRaNic.queue droppedPacketsQueueOverflow:count 0
attr interpolationmode none
attr recordingmode count
attr source packetDropReasonIsQueueOverflow(packetDropped)
attr title "dropped packets: queue overflow, count"
attr unit pk
scalar LoRaNetworkTest.loRaNodes[0].LoRaNic.queue droppedPacketLengthsQueueOverflow:sum 0
attr interpolationmode none
attr recordingmode sum
attr source packetLength(packetDropReasonIsQueueOverflow(packetDropped))
attr title "dropped packet lengths: queue overflow, sum"
attr unit b
par LoRaNetworkTest.loRaNodes[0].LoRaNic.mac typename "\"flora.LoRa.LoRaMac\""
par LoRaNetworkTest.loRaNodes[0].LoRaNic.mac interfaceTableModule "\"LoRaNetworkTest.loRaNodes[0].interfaceTable\""
par LoRaNetworkTest.loRaNodes[0].LoRaNic.mac radioModule "\"^.radio\""
par LoRaNetworkTest.loRaNodes[0].LoRaNic.mac address "\"0A-AA-00-00-00-01\""
attr mutable ""
par LoRaNetworkTest.loRaNodes[0].LoRaNic.mac fcsMode "\"declared\""
attr enum declared,computed
par LoRaNetworkTest.loRaNodes[0].LoRaNic.mac useAck true
par LoRaNetworkTest.loRaNodes[0].LoRaNic.mac bitrate 250bps
attr unit bps
par LoRaNetworkTest.loRaNodes[0].LoRaNic.mac headerLength 17B
attr unit B
par LoRaNetworkTest.loRaNodes[0].LoRaNic.mac ackLength 14B
attr unit B
par LoRaNetworkTest.loRaNodes[0].LoRaNic.mac sifsTime 1e-05s
attr unit s
par LoRaNetworkTest.loRaNodes[0].LoRaNic.mac slotTime 2e-05s
attr unit s
par LoRaNetworkTest.loRaNodes[0].LoRaNic.mac difsTime 5e-05s
attr unit s
par LoRaNetworkTest.loRaNodes[0].LoRaNic.mac ackTimeout 0.44803s
attr unit s
par LoRaNetworkTest.loRaNodes[0].LoRaNic.mac mtu 1500
par LoRaNetworkTest.loRaNodes[0].LoRaNic.mac cwMin 31
par LoRaNetworkTest.loRaNodes[0].LoRaNic.mac cwMax 1023
par LoRaNetworkTest.loRaNodes[0].LoRaNic.mac cwMulticast 31
par LoRaNetworkTest.loRaNodes[0].LoRaNic.mac retryLimit 7
scalar LoRaNetworkTest.loRaNodes[0].LoRaNic.mac numRetry 0
scalar LoRaNetworkTest.loRaNodes[0].LoRaNic.mac numSentWithoutRetry 0
scalar LoRaNetworkTest.loRaNodes[0].LoRaNic.mac numGivenUp 0
scalar LoRaNetworkTest.loRaNodes[0].LoRaNic.mac numSent 17
scalar LoRaNetworkTest.loRaNodes[0].LoRaNic.mac numReceived 0
scalar LoRaNetworkTest.loRaNodes[0].LoRaNic.mac numSentBroadcast 0
scalar LoRaNetworkTest.loRaNodes[0].LoRaNic.mac numReceivedBroadcast 0
scalar LoRaNetworkTest.loRaNodes[0].LoRaNic.mac packetDropIncorrectlyReceived:count 0
attr interpolationmode none
attr recordingmode count
attr source packetDropReasonIsIncorrectlyReceived(packetDropped)
attr title "packet drop: incorrectly received, count"
scalar LoRaNetworkTest.loRaNodes[0].LoRaNic.mac packetDropIncorrectlyReceived:sum(packetBytes) 0
attr interpolationmode none
attr recordingmode sum(packetBytes)
attr source packetDropReasonIsIncorrectlyReceived(packetDropped)
attr title "packet drop: incorrectly received, sum(packetBytes)"
scalar LoRaNetworkTest.loRaNodes[0].LoRaNic.mac packetDropNotAddressedToUs:count 0
attr interpolationmode none
attr recordingmode count
attr source packetDropReasonIsNotAddressedToUs(packetDropped)
attr title "packet drop: not addressed to us, count"
scalar LoRaNetworkTest.loRaNodes[0].LoRaNic.mac packetDropNotAddressedToUs:sum(packetBytes) 0
attr interpolationmode none
attr recordingmode sum(packetBytes)
attr source packetDropReasonIsNotAddressedToUs(packetDropped)
attr title "packet drop: not addressed to us, sum(packetBytes)"
scalar LoRaNetworkTest.loRaNodes[0].LoRaNic.mac packetDropQueueOverflow:count 0
attr interpolationmode none
attr recordingmode count
attr source packetDropReasonIsQueueOverflow(packetDropped)
attr title "packet drop: queue overflow, count"
scalar LoRaNetworkTest.loRaNodes[0].LoRaNic.mac packetDropQueueOverflow:sum(packetBytes) 0
attr interpolationmode none
attr recordingmode sum(packetBytes)
attr source packetDropReasonIsQueueOverflow(packetDropped)
attr title "packet drop: queue overflow, sum(packetBytes)"
scalar LoRaNetworkTest.loRaNodes[0].LoRaNic.mac packetDropRetryLimitReached:count 0
attr interpolationmode none
attr recordingmode count
attr source packetDropReasonIsRetryLimitReached(packetDropped)
attr title "packet drop: retry limit reached, count"
scalar LoRaNetworkTest.loRaNodes[0].LoRaNic.mac packetDropRetryLimitReached:sum(packetBytes) 0
attr interpolationmode none
attr recordingmode sum(packetBytes)
attr source packetDropReasonIsRetryLimitReached(packetDropped)
attr title "packet drop: retry limit reached, sum(packetBytes)"
scalar LoRaNetworkTest.loRaNodes[0].LoRaNic.mac linkBroken:count 0
attr interpolationmode none
attr recordingmode count
attr source linkBroken
attr title "link break, count"
par LoRaNetworkTest.loRaNodes[0].LoRaNic.radio.antenna typename "\"inet.physicallayer.wireless.common.antenna.IsotropicAntenna\""
par LoRaNetworkTest.loRaNodes[0].LoRaNic.radio.antenna mobilityModule "\"^.^.^.mobility\""
par LoRaNetworkTest.loRaNodes[0].LoRaNic.radio.antenna numAntennas 1
par LoRaNetworkTest.loRaNodes[0].LoRaNic.radio.transmitter typename "\"flora.LoRaPhy.LoRaTransmitter\""
par LoRaNetworkTest.loRaNodes[0].LoRaNic.radio.transmitter preambleDuration 0.001s
attr unit s
par LoRaNetworkTest.loRaNodes[0].LoRaNic.radio.transmitter headerLength 0b
attr unit b
par LoRaNetworkTest.loRaNodes[0].LoRaNic.radio.transmitter bitrate 250000bps
attr unit bps
par LoRaNetworkTest.loRaNodes[0].LoRaNic.radio.transmitter power 0.025118W
attr unit W
par LoRaNetworkTest.loRaNodes[0].LoRaNic.radio.transmitter centerFrequency 8.68e+08Hz
attr unit Hz
par LoRaNetworkTest.loRaNodes[0].LoRaNic.radio.transmitter bandwidth 250000Hz
attr unit Hz
par LoRaNetworkTest.loRaNodes[0].LoRaNic.radio.transmitter modulation "\"LoRaModulation\""
scalar LoRaNetworkTest.loRaNodes[0].LoRaNic.radio.transmitter LoRaTransmissionCreated:count 16
attr recordingmode count
attr source LoRaTransmissionCreated
par LoRaNetworkTest.loRaNodes[0].LoRaNic.radio.receiver typename "\"flora.LoRaPhy.LoRaReceiver\""
par LoRaNetworkTest.loRaNodes[0].LoRaNic.radio.receiver snirThreshold -8dB
attr unit dB
par LoRaNetworkTest.loRaNodes[0].LoRaNic.radio.receiver snirThresholdMode "\"min\""
attr unit min,mean
par LoRaNetworkTest.loRaNodes[0].LoRaNic.radio.receiver energyDetection -110dBm
attr unit dBm
par LoRaNetworkTest.loRaNodes[0].LoRaNic.radio.receiver sensitivity -137dBm
attr unit dBm
par LoRaNetworkTest.loRaNodes[0].LoRaNic.radio.receiver centerFrequency 8.68e+08Hz
attr unit Hz
par LoRaNetworkTest.loRaNodes[0].LoRaNic.radio.receiver bandwidth 250000Hz
attr unit Hz
par LoRaNetworkTest.loRaNodes[0].LoRaNic.radio.receiver modulation "\"BPSK\""
par LoRaNetworkTest.loRaNodes[0].LoRaNic.radio.receiver alohaChannelModel false
scalar LoRaNetworkTest.loRaNodes[0].LoRaNic.radio.receiver numCollisions 0
scalar LoRaNetworkTest.loRaNodes[0].LoRaNic.radio.receiver rcvBelowSensitivity 4
scalar LoRaNetworkTest.loRaNodes[0].LoRaNic.radio.receiver LoRaReceptionCollision:count 0
attr recordingmode count
attr source LoRaReceptionCollision
par LoRaNetworkTest.loRaNodes[0].LoRaNic.radio.energyConsumer typename "\"flora.LoRaEnergyModules.LoRaEnergyConsumer\""
par LoRaNetworkTest.loRaNodes[0].LoRaNic.radio.energyConsumer energySourceModule "\"^.IdealEpEnergyStorage\""
par LoRaNetworkTest.loRaNodes[0].LoRaNic.radio.energyConsumer offPowerConsumption 0W
attr unit W
par LoRaNetworkTest.loRaNodes[0].LoRaNic.radio.energyConsumer sleepPowerConsumption 0.001W
attr unit W
par LoRaNetworkTest.loRaNodes[0].LoRaNic.radio.energyConsumer switchingPowerConsumption 0.001W
attr unit W
par LoRaNetworkTest.loRaNodes[0].LoRaNic.radio.energyConsumer receiverIdlePowerConsumption 0.002W
attr unit W
par LoRaNetworkTest.loRaNodes[0].LoRaNic.radio.energyConsumer receiverBusyPowerConsumption 0.005W
attr unit W
par LoRaNetworkTest.loRaNodes[0].LoRaNic.radio.energyConsumer receiverReceivingPowerConsumption 0.01W
attr unit W
par LoRaNetworkTest.loRaNodes[0].LoRaNic.radio.energyConsumer receiverReceivingPreamblePowerConsumption 0.01W
attr unit W
par LoRaNetworkTest.loRaNodes[0].LoRaNic.radio.energyConsumer receiverReceivingHeaderPowerConsumption 0.01W
attr unit W
par LoRaNetworkTest.loRaNodes[0].LoRaNic.radio.energyConsumer receiverReceivingDataPowerConsumption 0.01W
attr unit W
par LoRaNetworkTest.loRaNodes[0].LoRaNic.radio.energyConsumer transmitterIdlePowerConsumption 0.002W
attr unit W
par LoRaNetworkTest.loRaNodes[0].LoRaNic.radio.energyConsumer transmitterTransmittingPowerConsumption 0.1W
attr unit W
par LoRaNetworkTest.loRaNodes[0].LoRaNic.radio.energyConsumer transmitterTransmittingPreamblePowerConsumption 0.1W
attr unit W
par LoRaNetworkTest.loRaNodes[0].LoRaNic.radio.energyConsumer transmitterTransmittingHeaderPowerConsumption 0.1W
attr unit W
par LoRaNetworkTest.loRaNodes[0].LoRaNic.radio.energyConsumer transmitterTransmittingDataPowerConsumption 0.1W
attr unit W
par LoRaNetworkTest.loRaNodes[0].LoRaNic.radio.energyConsumer configFile "<root>...</root> at /home/roo/Downloads/system_simulation_omnet/simulations//energyConsumptionParam.xml:2"
scalar LoRaNetworkTest.loRaNodes[0].LoRaNic.radio.energyConsumer totalEnergyConsumed 5.4883050731512
par LoRaNetworkTest.loRaNodes[0].LoRaNic.radio.IdealEpEnergyStorage typename "\"inet.power.storage.IdealEpEnergyStorage\""
scalar LoRaNetworkTest.loRaNodes[0].LoRaNic.radio.IdealEpEnergyStorage residualEnergyCapacity:last -5.4883050731512
attr interpolationmode linear
attr recordingmode last
attr source residualEnergyCapacityChanged
attr title "Residual energy capacity, last"
par LoRaNetworkTest.loRaNodes[0].LoRaNic.radio typename "\"flora.LoRa.LoRaRadio\""
par LoRaNetworkTest.loRaNodes[0].LoRaNic.radio radioMediumModule "\"LoRaMedium\""
par LoRaNetworkTest.loRaNodes[0].LoRaNic.radio energySourceModule "\"^.IdealEpEnergyStorage\""
par LoRaNetworkTest.loRaNodes[0].LoRaNic.radio initialRadioMode "\"off\""
attr enum off,sleep,receiver,transmitter,transceiver
par LoRaNetworkTest.loRaNodes[0].LoRaNic.radio switchingTimes "\"ms 0 0 0 0 0 0 0 0 0 0 0 0 0 0 0 0 0 0 0 0 0 0 0 0 0\""
par LoRaNetworkTest.loRaNodes[0].LoRaNic.radio sendRawBytes false
par LoRaNetworkTest.loRaNodes[0].LoRaNic.radio separateTransmissionParts false
par LoRaNetworkTest.loRaNodes[0].LoRaNic.radio separateReceptionParts false
par LoRaNetworkTest.loRaNodes[0].LoRaNic.radio displayCommunicationRange false
par LoRaNetworkTest.loRaNodes[0].LoRaNic.radio displayInterferenceRange false
par LoRaNetworkTest.loRaNodes[0].LoRaNic.radio centerFrequency 8.68e+08Hz
attr unit Hz
par LoRaNetworkTest.loRaNodes[0].LoRaNic.radio bandwidth 250000Hz
attr unit Hz
par LoRaNetworkTest.loRaNodes[0].LoRaNic.radio iAmGateway false
scalar LoRaNetworkTest.loRaNodes[0].LoRaNic.radio radioMode:count 112
attr interpolationmode sample-hold
attr recordingmode count
attr source radioModeChanged
attr title "Radio mode, count"
scalar LoRaNetworkTest.loRaNodes[0].LoRaNic.radio receptionState:count 88
attr interpolationmode sample-hold
attr recordingmode count
attr source receptionStateChanged
attr title "Radio reception state, count"
scalar LoRaNetworkTest.loRaNodes[0].LoRaNic.radio transmissionState:count 64
attr interpolationmode sample-hold
attr recordingmode count
attr source transmissionStateChanged
attr title "Radio transmission state, count"
statistic LoRaNetworkTest.loRaNodes[0].LoRaNic.radio minSnir:histogram
field count 2
field mean 6.8165175189415
field stddev 0.72115866630145
field min 6.3065813356883
field max 7.3264537021948
field sum 13.633035037883
field sqrsum 93.449891994056
attr recordingmode histogram
attr source minimumSnir(packetSentToUpper)
attr title "Min SNIR"
bin	-inf	0
bin	6.04	0
bin	6.06	0
bin	6.08	0
bin	6.1	0
bin	6.12	0
bin	6.14	0
bin	6.16	0
bin	6.18	0
bin	6.2	0
bin	6.22	0
bin	6.24	0
bin	6.26	0
bin	6.28	0
bin	6.3	1
bin	6.32	0
bin	6.34	0
bin	6.36	0
bin	6.38	0
bin	6.4	0
bin	6.42	0
bin	6.44	0
bin	6.46	0
bin	6.48	0
bin	6.5	0
bin	6.52	0
bin	6.54	0
bin	6.56	0
bin	6.58	0
bin	6.6	0
bin	6.62	0
bin	6.64	0
bin	6.66	0
bin	6.68	0
bin	6.7	0
bin	6.72	0
bin	6.74	0
bin	6.76	0
bin	6.78	0
bin	6.8	0
bin	6.82	0
bin	6.84	0
bin	6.86	0
bin	6.88	0
bin	6.9	0
bin	6.92	0
bin	6.94	0
bin	6.96	0
bin	6.98	0
bin	7	0
bin	7.02	0
bin	7.04	0
bin	7.06	0
bin	7.08	0
bin	7.1	0
bin	7.12	0
bin	7.14	0
bin	7.16	0
bin	7.18	0
bin	7.2	0
bin	7.22	0
bin	7.24	0
bin	7.26	0
bin	7.28	0
bin	7.3	0
bin	7.32	1
bin	7.34	0
bin	7.36	0
bin	7.38	0
bin	7.4	0
bin	7.42	0
bin	7.44	0
bin	7.46	0
bin	7.48	0
bin	7.5	0
bin	7.52	0
bin	7.54	0
bin	7.56	0
bin	7.58	0
bin	7.6	0
statistic LoRaNetworkTest.loRaNodes[0].LoRaNic.radio packetErrorRate:histogram
field count 2
field mean 0
field stddev 0
field min 0
field max 0
field sum 0
field sqrsum 0
attr recordingmode histogram
attr source packetErrorRate(packetSentToUpper)
attr title "Packet error rate"
bin	-inf	0
bin	-0.5	0
bin	-0.48	0
bin	-0.46	0
bin	-0.44	0
bin	-0.42	0
bin	-0.4	0
bin	-0.38	0
bin	-0.36	0
bin	-0.34	0
bin	-0.32	0
bin	-0.3	0
bin	-0.28	0
bin	-0.26	0
bin	-0.24	0
bin	-0.22	0
bin	-0.2	0
bin	-0.18	0
bin	-0.16	0
bin	-0.14	0
bin	-0.12	0
bin	-0.1	0
bin	-0.08	0
bin	-0.06	0
bin	-0.04	0
bin	-0.02	0
bin	0	2
bin	0.02	0
bin	0.04	0
bin	0.06	0
bin	0.08	0
bin	0.1	0
bin	0.12	0
bin	0.14	0
bin	0.16	0
bin	0.18	0
bin	0.2	0
bin	0.22	0
bin	0.24	0
bin	0.26	0
bin	0.28	0
bin	0.3	0
bin	0.32	0
bin	0.34	0
bin	0.36	0
bin	0.38	0
bin	0.4	0
bin	0.42	0
bin	0.44	0
bin	0.46	0
bin	0.48	0
bin	0.5	0
statistic LoRaNetworkTest.loRaNodes[0].LoRaNic.radio bitErrorRate:histogram
field count 2
field mean 0
field stddev 0
field min 0
field max 0
field sum 0
field sqrsum 0
attr recordingmode histogram
attr source bitErrorRate(packetSentToUpper)
attr title "Bit error rate"
bin	-inf	0
bin	-0.5	0
bin	-0.48	0
bin	-0.46	0
bin	-0.44	0
bin	-0.42	0
bin	-0.4	0
bin	-0.38	0
bin	-0.36	0
bin	-0.34	0
bin	-0.32	0
bin	-0.3	0
bin	-0.28	0
bin	-0.26	0
bin	-0.24	0
bin	-0.22	0
bin	-0.2	0
bin	-0.18	0
bin	-0.16	0
bin	-0.14	0
bin	-0.12	0
bin	-0.1	0
bin	-0.08	0
bin	-0.06	0
bin	-0.04	0
bin	-0.02	0
bin	0	2
bin	0.02	0
bin	0.04	0
bin	0.06	0
bin	0.08	0
bin	0.1	0
bin	0.12	0
bin	0.14	0
bin	0.16	0
bin	0.18	0
bin	0.2	0
bin	0.22	0
bin	0.24	0
bin	0.26	0
bin	0.28	0
bin	0.3	0
bin	0.32	0
bin	0.34	0
bin	0.36	0
bin	0.38	0
bin	0.4	0
bin	0.42	0
bin	0.44	0
bin	0.46	0
bin	0.48	0
bin	0.5	0
statistic LoRaNetworkTest.loRaNodes[0].LoRaNic.radio symbolErrorRate:histogram
field count 2
field mean 0
field stddev 0
field min 0
field max 0
field sum 0
field sqrsum 0
attr recordingmode histogram
attr source symbolErrorRate(packetSentToUpper)
attr title "Symbol error rate"
bin	-inf	0
bin	-0.5	0
bin	-0.48	0
bin	-0.46	0
bin	-0.44	0
bin	-0.42	0
bin	-0.4	0
bin	-0.38	0
bin	-0.36	0
bin	-0.34	0
bin	-0.32	0
bin	-0.3	0
bin	-0.28	0
bin	-0.26	0
bin	-0.24	0
bin	-0.22	0
bin	-0.2	0
bin	-0.18	0
bin	-0.16	0
bin	-0.14	0
bin	-0.12	0
bin	-0.1	0
bin	-0.08	0
bin	-0.06	0
bin	-0.04	0
bin	-0.02	0
bin	0	2
bin	0.02	0
bin	0.04	0
bin	0.06	0
bin	0.08	0
bin	0.1	0
bin	0.12	0
bin	0.14	0
bin	0.16	0
bin	0.18	0
bin	0.2	0
bin	0.22	0
bin	0.24	0
bin	0.26	0
bin	0.28	0
bin	0.3	0
bin	0.32	0
bin	0.34	0
bin	0.36	0
bin	0.38	0
bin	0.4	0
bin	0.42	0
bin	0.44	0
bin	0.46	0
bin	0.48	0
bin	0.5	0
par LoRaNetworkTest.loRaNodes[0].LoRaNic typename "\"flora.LoRa.LoRaNic\""
par LoRaNetworkTest.loRaNodes[0].LoRaNic displayStringTextFormat "\"%a (%i)\\n%m\""
par LoRaNetworkTest.loRaNodes[0].LoRaNic recordPcap false
par LoRaNetworkTest.loRaNodes[0].LoRaNic numPcapRecorders 0
par LoRaNetworkTest.loRaNodes[0].LoRaNic interfaceTableModule "\"LoRaNetworkTest.loRaNodes[0].interfaceTable\""
par LoRaNetworkTest.loRaNodes[0].LoRaNic energySourceModule "\"^.IdealEpEnergyStorage\""
par LoRaNetworkTest.loRaNodes[0].LoRaNic protocol "\"\""
scalar LoRaNetworkTest.loRaNodes[0].LoRaNic packetDropInterfaceDown:count 0
attr interpolationmode none
attr recordingmode count
attr source packetDropReasonIsInterfaceDown(packetDropped)
attr title "packet drops: interface down, count"
scalar LoRaNetworkTest.loRaNodes[0].LoRaNic packetDropInterfaceDown:sum(packetBytes) 0
attr interpolationmode none
attr recordingmode sum(packetBytes)
attr source packetDropReasonIsInterfaceDown(packetDropped)
attr title "packet drops: interface down, sum(packetBytes)"
scalar LoRaNetworkTest.loRaNodes[0].LoRaNic packetDropNoCarrier:count 0
attr interpolationmode none
attr recordingmode count
attr source packetDropReasonIsNoCarrier(packetDropped)
attr title "packet drops: no carrier, count"
scalar LoRaNetworkTest.loRaNodes[0].LoRaNic packetDropNoCarrier:sum(packetBytes) 0
attr interpolationmode none
attr recordingmode sum(packetBytes)
attr source packetDropReasonIsNoCarrier(packetDropped)
attr title "packet drops: no carrier, sum(packetBytes)"
par LoRaNetworkTest.loRaNodes[0].app[0] typename "\"test2.PatientSensorApp\""
par LoRaNetworkTest.loRaNodes[0].app[0] numberOfPacketsToSend 0
par LoRaNetworkTest.loRaNodes[0].app[0] timeToFirstPacket exponential(24s)
attr unit s
par LoRaNetworkTest.loRaNodes[0].app[0] timeToNextPacket exponential(24s)
attr unit s
par LoRaNetworkTest.loRaNodes[0].app[0] initialLoRaTP 14dBm
attr unit dBm
par LoRaNetworkTest.loRaNodes[0].app[0] initialLoRaCF 8.68e+08Hz
attr unit Hz
par LoRaNetworkTest.loRaNodes[0].app[0] initialLoRaSF 12
par LoRaNetworkTest.loRaNodes[0].app[0] initialLoRaBW 125000Hz
attr unit Hz
par LoRaNetworkTest.loRaNodes[0].app[0] initialLoRaCR 4
par LoRaNetworkTest.loRaNodes[0].app[0] initialUseHeader true
par LoRaNetworkTest.loRaNodes[0].app[0] evaluateADRinNode true
par LoRaNetworkTest.loRaNodes[0].app[0] dataSize 10B
attr unit B
par LoRaNetworkTest.loRaNodes[0].app[0] expo_rate_lambda 0.00175
par LoRaNetworkTest.loRaNodes[0].app[0] emergencyThreshold 50
scalar LoRaNetworkTest.loRaNodes[0].app[0] urgentPacketsSentTotal 0
scalar LoRaNetworkTest.loRaNodes[0].app[0] normalPacketsSentTotal 16
scalar LoRaNetworkTest.loRaNodes[0].app[0] positionX 307.8572029341
scalar LoRaNetworkTest.loRaNodes[0].app[0] positionY 257.15961721912
scalar LoRaNetworkTest.loRaNodes[0].app[0] finalTP 14
scalar LoRaNetworkTest.loRaNodes[0].app[0] finalSF 12
scalar LoRaNetworkTest.loRaNodes[0].app[0] sentPackets 16
scalar LoRaNetworkTest.loRaNodes[0].app[0] receivedADRCommands 0
statistic LoRaNetworkTest.loRaNodes[0].app[0] emergencyVariate:histogram
field count 16
field mean 633.75707117507
field stddev 822.22089999188
field min 83.450111168819
field max 3412.7092607397
field sum 10140.113138801
field sqrsum 16567076.529982
attr recordingmode histogram
attr title "Exponential variate samples"
bin	-inf	0
bin	0	0
bin	50	2
bin	100	2
bin	150	0
bin	200	1
bin	250	1
bin	300	2
bin	350	1
bin	400	0
bin	450	1
bin	500	0
bin	550	1
bin	600	0
bin	650	1
bin	700	0
bin	750	1
bin	800	0
bin	850	1
bin	900	0
bin	950	0
bin	1000	0
bin	1050	0
bin	1100	0
bin	1150	0
bin	1200	0
bin	1250	0
bin	1300	0
bin	1350	0
bin	1400	1
bin	1450	0
bin	1500	0
bin	1550	0
bin	1600	0
bin	1650	0
bin	1700	0
bin	1750	0
bin	1800	0
bin	1850	0
bin	1900	0
bin	1950	0
bin	2000	0
bin	2050	0
bin	2100	0
bin	2150	0
bin	2200	0
bin	2250	0
bin	2300	0
bin	2350	0
bin	2400	0
bin	2450	0
bin	2500	0
bin	2550	0
bin	2600	0
bin	2650	0
bin	2700	0
bin	2750	0
bin	2800	0
bin	2850	0
bin	2900	0
bin	2950	0
bin	3000	0
bin	3050	0
bin	3100	0
bin	3150	0
bin	3200	0
bin	3250	0
bin	3300	0
bin	3350	0
bin	3400	1
bin	3450	0
bin	3500	0
bin	3550	0
bin	3600	0
bin	3650	0
bin	3700	0
bin	3750	0
bin	3800	0
bin	3850	0
bin	3900	0
bin	3950	0
bin	4000	0
bin	4050	0
bin	4100	0
bin	4150	0
bin	4200	0
bin	4250	0
scalar LoRaNetworkTest.loRaNodes[0].app[0] normalPacketSent:count 16
attr recordingmode count
attr title "Normal packets sent, count"
scalar LoRaNetworkTest.loRaNodes[0].app[0] normalPacketSent:sum 16
attr recordingmode sum
attr title "Normal packets sent, sum"
scalar LoRaNetworkTest.loRaNodes[0].app[0] urgentPacketSent:count 0
attr recordingmode count
attr title "Urgent packets sent, count"
scalar LoRaNetworkTest.loRaNodes[0].app[0] urgentPacketSent:sum 0
attr recordingmode sum
attr title "Urgent packets sent, sum"
scalar LoRaNetworkTest.loRaNodes[0].app[0] LoRa_AppPacketSent:count 16
attr recordingmode count
attr source LoRa_AppPacketSent
par LoRaNetworkTest.loRaNodes[0] typename "\"flora.LoraNode.LoRaNode\""
par LoRaNetworkTest.loRaNodes[0] numApps 1
par LoRaNetworkTest.loRaNodes[0] deploymentType "\"\""
par LoRaNetworkTest.loRaNodes[0] maxGatewayDistance 320
par LoRaNetworkTest.loRaNodes[0] gatewayX 320
par LoRaNetworkTest.loRaNodes[0] gatewayY 320
par LoRaNetworkTest.loRaNodes[1].interfaceTable typename "\"inet.networklayer.common.InterfaceTable\""
par LoRaNetworkTest.loRaNodes[1].interfaceTable displayAddresses false
par LoRaNetworkTest.loRaNodes[1].mobility typename "\"inet.mobility.static.StationaryMobility\""
par LoRaNetworkTest.loRaNodes[1].mobility subjectModule "\"^\""
par LoRaNetworkTest.loRaNodes[1].mobility coordinateSystemModule "\"\""
par LoRaNetworkTest.loRaNodes[1].mobility displayStringTextFormat "\"p: %p\\nv: %v\""
attr mutable ""
par LoRaNetworkTest.loRaNodes[1].mobility updateDisplayString true
par LoRaNetworkTest.loRaNodes[1].mobility constraintAreaMinX 0m
attr unit m
par LoRaNetworkTest.loRaNodes[1].mobility constraintAreaMinY 0m
attr unit m
par LoRaNetworkTest.loRaNodes[1].mobility constraintAreaMinZ 0m
attr unit m
par LoRaNetworkTest.loRaNodes[1].mobility constraintAreaMaxX 3000m
attr unit m
par LoRaNetworkTest.loRaNodes[1].mobility constraintAreaMaxY 3000m
attr unit m
par LoRaNetworkTest.loRaNodes[1].mobility constraintAreaMaxZ 0m
attr unit m
par LoRaNetworkTest.loRaNodes[1].mobility initialX 444.188m
attr unit m
par LoRaNetworkTest.loRaNodes[1].mobility initialY 255.14m
attr unit m
par LoRaNetworkTest.loRaNodes[1].mobility initialZ 0m
attr unit m
par LoRaNetworkTest.loRaNodes[1].mobility initialLatitude "nan deg"
attr unit deg
par LoRaNetworkTest.loRaNodes[1].mobility initialLongitude "nan deg"
attr unit deg
par LoRaNetworkTest.loRaNodes[1].mobility initialAltitude 0m
attr unit m
par LoRaNetworkTest.loRaNodes[1].mobility initialHeading 0deg
attr unit deg
par LoRaNetworkTest.loRaNodes[1].mobility initialElevation 0deg
attr unit deg
par LoRaNetworkTest.loRaNodes[1].mobility initialBank 0deg
attr unit deg
par LoRaNetworkTest.loRaNodes[1].mobility initFromDisplayString false
par LoRaNetworkTest.loRaNodes[1].mobility updateFromDisplayString true
par LoRaNetworkTest.loRaNodes[1].LoRaNic.radioIn.channel typename "\"ned.IdealChannel\""
par LoRaNetworkTest.loRaNodes[1].LoRaNic.mac.upperLayerOut.channel typename "\"ned.IdealChannel\""
par LoRaNetworkTest.loRaNodes[1].LoRaNic.upperLayerIn.channel typename "\"ned.IdealChannel\""
par LoRaNetworkTest.loRaNodes[1].LoRaNic.queue typename "\"inet.queueing.queue.DropTailQueue\""
par LoRaNetworkTest.loRaNodes[1].LoRaNic.queue displayStringTextFormat "\"contains %p pk (%l) pushed %u\\npulled %o removed %r dropped %d\""
par LoRaNetworkTest.loRaNodes[1].LoRaNic.queue packetCapacity -1
par LoRaNetworkTest.loRaNodes[1].LoRaNic.queue dataCapacity -1b
attr unit b
par LoRaNetworkTest.loRaNodes[1].LoRaNic.queue dropperClass "\"inet::queueing::PacketAtCollectionEndDropper\""
par LoRaNetworkTest.loRaNodes[1].LoRaNic.queue comparatorClass "\"\""
par LoRaNetworkTest.loRaNodes[1].LoRaNic.queue bufferModule "\"\""
scalar LoRaNetworkTest.loRaNodes[1].LoRaNic.queue queueLength:last 0
attr autoWarmupFilter false
attr interpolationmode sample-hold
attr recordingmode last
attr source "warmup(atomic(constant0(packetPushEnded) + count(packetPushStarted) - count(packetPulled) - count(packetRemoved) - count(packetDropped)))"
attr title "queue length, last"
attr unit pk
scalar LoRaNetworkTest.loRaNodes[1].LoRaNic.queue queueLength:max 0
attr autoWarmupFilter false
attr interpolationmode sample-hold
attr recordingmode max
attr source "warmup(atomic(constant0(packetPushEnded) + count(packetPushStarted) - count(packetPulled) - count(packetRemoved) - count(packetDropped)))"
attr title "queue length, max"
attr unit pk
scalar LoRaNetworkTest.loRaNodes[1].LoRaNic.queue queueLength:timeavg 0
attr autoWarmupFilter false
attr interpolationmode sample-hold
attr recordingmode timeavg
attr source "warmup(atomic(constant0(packetPushEnded) + count(packetPushStarted) - count(packetPulled) - count(packetRemoved) - count(packetDropped)))"
attr title "queue length, timeavg"
attr unit pk
scalar LoRaNetworkTest.loRaNodes[1].LoRaNic.queue queueBitLength:last 0
attr autoWarmupFilter false
attr interpolationmode sample-hold
attr recordingmode last
attr source "warmup(atomic(constant0(packetPushEnded) + sum(packetLength(packetPushStarted)) - sum(packetLength(packetPulled)) - sum(packetLength(packetRemoved)) - sum(packetLength(packetDropped))))"
attr title "queue bit length, last"
attr unit b
scalar LoRaNetworkTest.loRaNodes[1].LoRaNic.queue queueBitLength:max 0
attr autoWarmupFilter false
attr interpolationmode sample-hold
attr recordingmode max
attr source "warmup(atomic(constant0(packetPushEnded) + sum(packetLength(packetPushStarted)) - sum(packetLength(packetPulled)) - sum(packetLength(packetRemoved)) - sum(packetLength(packetDropped))))"
attr title "queue bit length, max"
attr unit b
scalar LoRaNetworkTest.loRaNodes[1].LoRaNic.queue queueBitLength:timeavg 0
attr autoWarmupFilter false
attr interpolationmode sample-hold
attr recordingmode timeavg
attr source "warmup(atomic(constant0(packetPushEnded) + sum(packetLength(packetPushStarted)) - sum(packetLength(packetPulled)) - sum(packetLength(packetRemoved)) - sum(packetLength(packetDropped))))"
attr title "queue bit length, timeavg"
attr unit b
statistic LoRaNetworkTest.loRaNodes[1].LoRaNic.queue queueingTime:histogram
field count 19
field mean 0
field stddev 0
field min 0
field max 0
field sum 0
field sqrsum 0
attr interpolationmode none
attr recordingmode histogram
attr source queueingTime(packetPulled)
attr title "queueing times"
attr unit s
bin	-inf	0
bin	-0.5	0
bin	-0.48	0
bin	-0.46	0
bin	-0.44	0
bin	-0.42	0
bin	-0.4	0
bin	-0.38	0
bin	-0.36	0
bin	-0.34	0
bin	-0.32	0
bin	-0.3	0
bin	-0.28	0
bin	-0.26	0
bin	-0.24	0
bin	-0.22	0
bin	-0.2	0
bin	-0.18	0
bin	-0.16	0
bin	-0.14	0
bin	-0.12	0
bin	-0.1	0
bin	-0.08	0
bin	-0.06	0
bin	-0.04	0
bin	-0.02	0
bin	0	19
bin	0.02	0
bin	0.04	0
bin	0.06	0
bin	0.08	0
bin	0.1	0
bin	0.12	0
bin	0.14	0
bin	0.16	0
bin	0.18	0
bin	0.2	0
bin	0.22	0
bin	0.24	0
bin	0.26	0
bin	0.28	0
bin	0.3	0
bin	0.32	0
bin	0.34	0
bin	0.36	0
bin	0.38	0
bin	0.4	0
bin	0.42	0
bin	0.44	0
bin	0.46	0
bin	0.48	0
bin	0.5	0
scalar LoRaNetworkTest.loRaNodes[1].LoRaNic.queue outgoingPackets:count 19
attr recordingmode count
attr source packetPulled
attr title "outgoing packets, count"
attr unit pk
scalar LoRaNetworkTest.loRaNodes[1].LoRaNic.queue outgoingPacketLengths:sum 1520
attr interpolationmode none
attr recordingmode sum
attr source packetLength(packetPulled)
attr title "outgoing packet lengths, sum"
attr unit b
statistic LoRaNetworkTest.loRaNodes[1].LoRaNic.queue outgoingPacketLengths:histogram
field count 19
field mean 80
field stddev 0
field min 80
field max 80
field sum 1520
field sqrsum 121600
attr interpolationmode none
attr recordingmode histogram
attr source packetLength(packetPulled)
attr title "outgoing packet lengths"
attr unit b
bin	-inf	0
bin	79	0
bin	80	19
bin	81	0
statistic LoRaNetworkTest.loRaNodes[1].LoRaNic.queue flowQueueingTime:histogram
field count 0
field mean -nan
field stddev -nan
field min -nan
field max -nan
field sum 0
field sqrsum 0
attr interpolationmode none
attr recordingmode histogram
attr source queueingTime(demuxFlow(packetPulled))
attr title "flow queueing times"
attr unit s
bin	-inf	0
bin	0	0
bin	1	0
scalar LoRaNetworkTest.loRaNodes[1].LoRaNic.queue incomingPackets:count 19
attr recordingmode count
attr source packetPushStarted
attr title "incoming packets, count"
attr unit pk
scalar LoRaNetworkTest.loRaNodes[1].LoRaNic.queue incomingPacketLengths:sum 1520
attr interpolationmode none
attr recordingmode sum
attr source packetLength(packetPushStarted)
attr title "incoming packet lengths, sum"
attr unit b
statistic LoRaNetworkTest.loRaNodes[1].LoRaNic.queue incomingPacketLengths:histogram
field count 19
field mean 80
field stddev 0
field min 80
field max 80
field sum 1520
field sqrsum 121600
attr interpolationmode none
attr recordingmode histogram
attr source packetLength(packetPushStarted)
attr title "incoming packet lengths"
attr unit b
bin	-inf	0
bin	79	0
bin	80	19
bin	81	0
scalar LoRaNetworkTest.loRaNodes[1].LoRaNic.queue droppedPacketsQueueOverflow:count 0
attr interpolationmode none
attr recordingmode count
attr source packetDropReasonIsQueueOverflow(packetDropped)
attr title "dropped packets: queue overflow, count"
attr unit pk
scalar LoRaNetworkTest.loRaNodes[1].LoRaNic.queue droppedPacketLengthsQueueOverflow:sum 0
attr interpolationmode none
attr recordingmode sum
attr source packetLength(packetDropReasonIsQueueOverflow(packetDropped))
attr title "dropped packet lengths: queue overflow, sum"
attr unit b
par LoRaNetworkTest.loRaNodes[1].LoRaNic.mac typename "\"flora.LoRa.LoRaMac\""
par LoRaNetworkTest.loRaNodes[1].LoRaNic.mac interfaceTableModule "\"LoRaNetworkTest.loRaNodes[1].interfaceTable\""
par LoRaNetworkTest.loRaNodes[1].LoRaNic.mac radioModule "\"^.radio\""
par LoRaNetworkTest.loRaNodes[1].LoRaNic.mac address "\"0A-AA-00-00-00-02\""
attr mutable ""
par LoRaNetworkTest.loRaNodes[1].LoRaNic.mac fcsMode "\"declared\""
attr enum declared,computed
par LoRaNetworkTest.loRaNodes[1].LoRaNic.mac useAck true
par LoRaNetworkTest.loRaNodes[1].LoRaNic.mac bitrate 250bps
attr unit bps
par LoRaNetworkTest.loRaNodes[1].LoRaNic.mac headerLength 17B
attr unit B
par LoRaNetworkTest.loRaNodes[1].LoRaNic.mac ackLength 14B
attr unit B
par LoRaNetworkTest.loRaNodes[1].LoRaNic.mac sifsTime 1e-05s
attr unit s
par LoRaNetworkTest.loRaNodes[1].LoRaNic.mac slotTime 2e-05s
attr unit s
par LoRaNetworkTest.loRaNodes[1].LoRaNic.mac difsTime 5e-05s
attr unit s
par LoRaNetworkTest.loRaNodes[1].LoRaNic.mac ackTimeout 0.44803s
attr unit s
par LoRaNetworkTest.loRaNodes[1].LoRaNic.mac mtu 1500
par LoRaNetworkTest.loRaNodes[1].LoRaNic.mac cwMin 31
par LoRaNetworkTest.loRaNodes[1].LoRaNic.mac cwMax 1023
par LoRaNetworkTest.loRaNodes[1].LoRaNic.mac cwMulticast 31
par LoRaNetworkTest.loRaNodes[1].LoRaNic.mac retryLimit 7
scalar LoRaNetworkTest.loRaNodes[1].LoRaNic.mac numRetry 0
scalar LoRaNetworkTest.loRaNodes[1].LoRaNic.mac numSentWithoutRetry 0
scalar LoRaNetworkTest.loRaNodes[1].LoRaNic.mac numGivenUp 0
scalar LoRaNetworkTest.loRaNodes[1].LoRaNic.mac numSent 19
scalar LoRaNetworkTest.loRaNodes[1].LoRaNic.mac numReceived 0
scalar LoRaNetworkTest.loRaNodes[1].LoRaNic.mac numSentBroadcast 0
scalar LoRaNetworkTest.loRaNodes[1].LoRaNic.mac numReceivedBroadcast 0
scalar LoRaNetworkTest.loRaNodes[1].LoRaNic.mac packetDropIncorrectlyReceived:count 0
attr interpolationmode none
attr recordingmode count
attr source packetDropReasonIsIncorrectlyReceived(packetDropped)
attr title "packet drop: incorrectly received, count"
scalar LoRaNetworkTest.loRaNodes[1].LoRaNic.mac packetDropIncorrectlyReceived:sum(packetBytes) 0
attr interpolationmode none
attr recordingmode sum(packetBytes)
attr source packetDropReasonIsIncorrectlyReceived(packetDropped)
attr title "packet drop: incorrectly received, sum(packetBytes)"
scalar LoRaNetworkTest.loRaNodes[1].LoRaNic.mac packetDropNotAddressedToUs:count 0
attr interpolationmode none
attr recordingmode count
attr source packetDropReasonIsNotAddressedToUs(packetDropped)
attr title "packet drop: not addressed to us, count"
scalar LoRaNetworkTest.loRaNodes[1].LoRaNic.mac packetDropNotAddressedToUs:sum(packetBytes) 0
attr interpolationmode none
attr recordingmode sum(packetBytes)
attr source packetDropReasonIsNotAddressedToUs(packetDropped)
attr title "packet drop: not addressed to us, sum(packetBytes)"
scalar LoRaNetworkTest.loRaNodes[1].LoRaNic.mac packetDropQueueOverflow:count 0
attr interpolationmode none
attr recordingmode count
attr source packetDropReasonIsQueueOverflow(packetDropped)
attr title "packet drop: queue overflow, count"
scalar LoRaNetworkTest.loRaNodes[1].LoRaNic.mac packetDropQueueOverflow:sum(packetBytes) 0
attr interpolationmode none
attr recordingmode sum(packetBytes)
attr source packetDropReasonIsQueueOverflow(packetDropped)
attr title "packet drop: queue overflow, sum(packetBytes)"
scalar LoRaNetworkTest.loRaNodes[1].LoRaNic.mac packetDropRetryLimitReached:count 0
attr interpolationmode none
attr recordingmode count
attr source packetDropReasonIsRetryLimitReached(packetDropped)
attr title "packet drop: retry limit reached, count"
scalar LoRaNetworkTest.loRaNodes[1].LoRaNic.mac packetDropRetryLimitReached:sum(packetBytes) 0
attr interpolationmode none
attr recordingmode sum(packetBytes)
attr source packetDropReasonIsRetryLimitReached(packetDropped)
attr title "packet drop: retry limit reached, sum(packetBytes)"
scalar LoRaNetworkTest.loRaNodes[1].LoRaNic.mac linkBroken:count 0
attr interpolationmode none
attr recordingmode count
attr source linkBroken
attr title "link break, count"
par LoRaNetworkTest.loRaNodes[1].LoRaNic.radio.antenna typename "\"inet.physicallayer.wireless.common.antenna.IsotropicAntenna\""
par LoRaNetworkTest.loRaNodes[1].LoRaNic.radio.antenna mobilityModule "\"^.^.^.mobility\""
par LoRaNetworkTest.loRaNodes[1].LoRaNic.radio.antenna numAntennas 1
par LoRaNetworkTest.loRaNodes[1].LoRaNic.radio.transmitter typename "\"flora.LoRaPhy.LoRaTransmitter\""
par LoRaNetworkTest.loRaNodes[1].LoRaNic.radio.transmitter preambleDuration 0.001s
attr unit s
par LoRaNetworkTest.loRaNodes[1].LoRaNic.radio.transmitter headerLength 0b
attr unit b
par LoRaNetworkTest.loRaNodes[1].LoRaNic.radio.transmitter bitrate 250000bps
attr unit bps
par LoRaNetworkTest.loRaNodes[1].LoRaNic.radio.transmitter power 0.025118W
attr unit W
par LoRaNetworkTest.loRaNodes[1].LoRaNic.radio.transmitter centerFrequency 8.68e+08Hz
attr unit Hz
par LoRaNetworkTest.loRaNodes[1].LoRaNic.radio.transmitter bandwidth 250000Hz
attr unit Hz
par LoRaNetworkTest.loRaNodes[1].LoRaNic.radio.transmitter modulation "\"LoRaModulation\""
scalar LoRaNetworkTest.loRaNodes[1].LoRaNic.radio.transmitter LoRaTransmissionCreated:count 19
attr recordingmode count
attr source LoRaTransmissionCreated
par LoRaNetworkTest.loRaNodes[1].LoRaNic.radio.receiver typename "\"flora.LoRaPhy.LoRaReceiver\""
par LoRaNetworkTest.loRaNodes[1].LoRaNic.radio.receiver snirThreshold -8dB
attr unit dB
par LoRaNetworkTest.loRaNodes[1].LoRaNic.radio.receiver snirThresholdMode "\"min\""
attr unit min,mean
par LoRaNetworkTest.loRaNodes[1].LoRaNic.radio.receiver energyDetection -110dBm
attr unit dBm
par LoRaNetworkTest.loRaNodes[1].LoRaNic.radio.receiver sensitivity -137dBm
attr unit dBm
par LoRaNetworkTest.loRaNodes[1].LoRaNic.radio.receiver centerFrequency 8.68e+08Hz
attr unit Hz
par LoRaNetworkTest.loRaNodes[1].LoRaNic.radio.receiver bandwidth 250000Hz
attr unit Hz
par LoRaNetworkTest.loRaNodes[1].LoRaNic.radio.receiver modulation "\"BPSK\""
par LoRaNetworkTest.loRaNodes[1].LoRaNic.radio.receiver alohaChannelModel false
scalar LoRaNetworkTest.loRaNodes[1].LoRaNic.radio.receiver numCollisions 0
scalar LoRaNetworkTest.loRaNodes[1].LoRaNic.radio.receiver rcvBelowSensitivity 0
scalar LoRaNetworkTest.loRaNodes[1].LoRaNic.radio.receiver LoRaReceptionCollision:count 0
attr recordingmode count
attr source LoRaReceptionCollision
par LoRaNetworkTest.loRaNodes[1].LoRaNic.radio.energyConsumer typename "\"flora.LoRaEnergyModules.LoRaEnergyConsumer\""
par LoRaNetworkTest.loRaNodes[1].LoRaNic.radio.energyConsumer energySourceModule "\"^.IdealEpEnergyStorage\""
par LoRaNetworkTest.loRaNodes[1].LoRaNic.radio.energyConsumer offPowerConsumption 0W
attr unit W
par LoRaNetworkTest.loRaNodes[1].LoRaNic.radio.energyConsumer sleepPowerConsumption 0.001W
attr unit W
par LoRaNetworkTest.loRaNodes[1].LoRaNic.radio.energyConsumer switchingPowerConsumption 0.001W
attr unit W
par LoRaNetworkTest.loRaNodes[1].LoRaNic.radio.energyConsumer receiverIdlePowerConsumption 0.002W
attr unit W
par LoRaNetworkTest.loRaNodes[1].LoRaNic.radio.energyConsumer receiverBusyPowerConsumption 0.005W
attr unit W
par LoRaNetworkTest.loRaNodes[1].LoRaNic.radio.energyConsumer receiverReceivingPowerConsumption 0.01W
attr unit W
par LoRaNetworkTest.loRaNodes[1].LoRaNic.radio.energyConsumer receiverReceivingPreamblePowerConsumption 0.01W
attr unit W
par LoRaNetworkTest.loRaNodes[1].LoRaNic.radio.energyConsumer receiverReceivingHeaderPowerConsumption 0.01W
attr unit W
par LoRaNetworkTest.loRaNodes[1].LoRaNic.radio.energyConsumer receiverReceivingDataPowerConsumption 0.01W
attr unit W
par LoRaNetworkTest.loRaNodes[1].LoRaNic.radio.energyConsumer transmitterIdlePowerConsumption 0.002W
attr unit W
par LoRaNetworkTest.loRaNodes[1].LoRaNic.radio.energyConsumer transmitterTransmittingPowerConsumption 0.1W
attr unit W
par LoRaNetworkTest.loRaNodes[1].LoRaNic.radio.energyConsumer transmitterTransmittingPreamblePowerConsumption 0.1W
attr unit W
par LoRaNetworkTest.loRaNodes[1].LoRaNic.radio.energyConsumer transmitterTransmittingHeaderPowerConsumption 0.1W
attr unit W
par LoRaNetworkTest.loRaNodes[1].LoRaNic.radio.energyConsumer transmitterTransmittingDataPowerConsumption 0.1W
attr unit W
par LoRaNetworkTest.loRaNodes[1].LoRaNic.radio.energyConsumer configFile "<root>...</root> at /home/roo/Downloads/system_simulation_omnet/simulations//energyConsumptionParam.xml:2"
scalar LoRaNetworkTest.loRaNodes[1].LoRaNic.radio.energyConsumer totalEnergyConsumed 5.9397987264
par LoRaNetworkTest.loRaNodes[1].LoRaNic.radio.IdealEpEnergyStorage typename "\"inet.power.storage.IdealEpEnergyStorage\""
scalar LoRaNetworkTest.loRaNodes[1].LoRaNic.radio.IdealEpEnergyStorage residualEnergyCapacity:last -5.9397987264
attr interpolationmode linear
attr recordingmode last
attr source residualEnergyCapacityChanged
attr title "Residual energy capacity, last"
par LoRaNetworkTest.loRaNodes[1].LoRaNic.radio typename "\"flora.LoRa.LoRaRadio\""
par LoRaNetworkTest.loRaNodes[1].LoRaNic.radio radioMediumModule "\"LoRaMedium\""
par LoRaNetworkTest.loRaNodes[1].LoRaNic.radio energySourceModule "\"^.IdealEpEnergyStorage\""
par LoRaNetworkTest.loRaNodes[1].LoRaNic.radio initialRadioMode "\"off\""
attr enum off,sleep,receiver,transmitter,transceiver
par LoRaNetworkTest.loRaNodes[1].LoRaNic.radio switchingTimes "\"ms 0 0 0 0 0 0 0 0 0 0 0 0 0 0 0 0 0 0 0 0 0 0 0 0 0\""
par LoRaNetworkTest.loRaNodes[1].LoRaNic.radio sendRawBytes false
par LoRaNetworkTest.loRaNodes[1].LoRaNic.radio separateTransmissionParts false
par LoRaNetworkTest.loRaNodes[1].LoRaNic.radio separateReceptionParts false
par LoRaNetworkTest.loRaNodes[1].LoRaNic.radio displayCommunicationRange false
par LoRaNetworkTest.loRaNodes[1].LoRaNic.radio displayInterferenceRange false
par LoRaNetworkTest.loRaNodes[1].LoRaNic.radio centerFrequency 8.68e+08Hz
attr unit Hz
par LoRaNetworkTest.loRaNodes[1].LoRaNic.radio bandwidth 250000Hz
attr unit Hz
par LoRaNetworkTest.loRaNodes[1].LoRaNic.radio iAmGateway false
scalar LoRaNetworkTest.loRaNodes[1].LoRaNic.radio radioMode:count 114
attr interpolationmode sample-hold
attr recordingmode count
attr source radioModeChanged
attr title "Radio mode, count"
scalar LoRaNetworkTest.loRaNodes[1].LoRaNic.radio receptionState:count 76
attr interpolationmode sample-hold
attr recordingmode count
attr source receptionStateChanged
attr title "Radio reception state, count"
scalar LoRaNetworkTest.loRaNodes[1].LoRaNic.radio transmissionState:count 76
attr interpolationmode sample-hold
attr recordingmode count
attr source transmissionStateChanged
attr title "Radio transmission state, count"
statistic LoRaNetworkTest.loRaNodes[1].LoRaNic.radio minSnir:histogram
field count 0
field mean -nan
field stddev -nan
field min -nan
field max -nan
field sum 0
field sqrsum 0
attr recordingmode histogram
attr source minimumSnir(packetSentToUpper)
attr title "Min SNIR"
bin	-inf	0
bin	0	0
bin	1	0
statistic LoRaNetworkTest.loRaNodes[1].LoRaNic.radio packetErrorRate:histogram
field count 0
field mean -nan
field stddev -nan
field min -nan
field max -nan
field sum 0
field sqrsum 0
attr recordingmode histogram
attr source packetErrorRate(packetSentToUpper)
attr title "Packet error rate"
bin	-inf	0
bin	0	0
bin	1	0
statistic LoRaNetworkTest.loRaNodes[1].LoRaNic.radio bitErrorRate:histogram
field count 0
field mean -nan
field stddev -nan
field min -nan
field max -nan
field sum 0
field sqrsum 0
attr recordingmode histogram
attr source bitErrorRate(packetSentToUpper)
attr title "Bit error rate"
bin	-inf	0
bin	0	0
bin	1	0
statistic LoRaNetworkTest.loRaNodes[1].LoRaNic.radio symbolErrorRate:histogram
field count 0
field mean -nan
field stddev -nan
field min -nan
field max -nan
field sum 0
field sqrsum 0
attr recordingmode histogram
attr source symbolErrorRate(packetSentToUpper)
attr title "Symbol error rate"
bin	-inf	0
bin	0	0
bin	1	0
par LoRaNetworkTest.loRaNodes[1].LoRaNic typename "\"flora.LoRa.LoRaNic\""
par LoRaNetworkTest.loRaNodes[1].LoRaNic displayStringTextFormat "\"%a (%i)\\n%m\""
par LoRaNetworkTest.loRaNodes[1].LoRaNic recordPcap false
par LoRaNetworkTest.loRaNodes[1].LoRaNic numPcapRecorders 0
par LoRaNetworkTest.loRaNodes[1].LoRaNic interfaceTableModule "\"LoRaNetworkTest.loRaNodes[1].interfaceTable\""
par LoRaNetworkTest.loRaNodes[1].LoRaNic energySourceModule "\"^.IdealEpEnergyStorage\""
par LoRaNetworkTest.loRaNodes[1].LoRaNic protocol "\"\""
scalar LoRaNetworkTest.loRaNodes[1].LoRaNic packetDropInterfaceDown:count 0
attr interpolationmode none
attr recordingmode count
attr source packetDropReasonIsInterfaceDown(packetDropped)
attr title "packet drops: interface down, count"
scalar LoRaNetworkTest.loRaNodes[1].LoRaNic packetDropInterfaceDown:sum(packetBytes) 0
attr interpolationmode none
attr recordingmode sum(packetBytes)
attr source packetDropReasonIsInterfaceDown(packetDropped)
attr title "packet drops: interface down, sum(packetBytes)"
scalar LoRaNetworkTest.loRaNodes[1].LoRaNic packetDropNoCarrier:count 0
attr interpolationmode none
attr recordingmode count
attr source packetDropReasonIsNoCarrier(packetDropped)
attr title "packet drops: no carrier, count"
scalar LoRaNetworkTest.loRaNodes[1].LoRaNic packetDropNoCarrier:sum(packetBytes) 0
attr interpolationmode none
attr recordingmode sum(packetBytes)
attr source packetDropReasonIsNoCarrier(packetDropped)
attr title "packet drops: no carrier, sum(packetBytes)"
par LoRaNetworkTest.loRaNodes[1].app[0] typename "\"test2.PatientSensorApp\""
par LoRaNetworkTest.loRaNodes[1].app[0] numberOfPacketsToSend 0
par LoRaNetworkTest.loRaNodes[1].app[0] timeToFirstPacket exponential(24s)
attr unit s
par LoRaNetworkTest.loRaNodes[1].app[0] timeToNextPacket exponential(24s)
attr unit s
par LoRaNetworkTest.loRaNodes[1].app[0] initialLoRaTP 14dBm
attr unit dBm
par LoRaNetworkTest.loRaNodes[1].app[0] initialLoRaCF 8.68e+08Hz
attr unit Hz
par LoRaNetworkTest.loRaNodes[1].app[0] initialLoRaSF 12
par LoRaNetworkTest.loRaNodes[1].app[0] initialLoRaBW 125000Hz
attr unit Hz
par LoRaNetworkTest.loRaNodes[1].app[0] initialLoRaCR 4
par LoRaNetworkTest.loRaNodes[1].app[0] initialUseHeader true
par LoRaNetworkTest.loRaNodes[1].app[0] evaluateADRinNode true
par LoRaNetworkTest.loRaNodes[1].app[0] dataSize 10B
attr unit B
par LoRaNetworkTest.loRaNodes[1].app[0] expo_rate_lambda 0.00175
par LoRaNetworkTest.loRaNodes[1].app[0] emergencyThreshold 50
scalar LoRaNetworkTest.loRaNodes[1].app[0] urgentPacketsSentTotal 2
scalar LoRaNetworkTest.loRaNodes[1].app[0] normalPacketsSentTotal 17
scalar LoRaNetworkTest.loRaNodes[1].app[0] positionX 444.18812731281
scalar LoRaNetworkTest.loRaNodes[1].app[0] positionY 255.13966599852
scalar LoRaNetworkTest.loRaNodes[1].app[0] finalTP 14
scalar LoRaNetworkTest.loRaNodes[1].app[0] finalSF 12
scalar LoRaNetworkTest.loRaNodes[1].app[0] sentPackets 19
scalar LoRaNetworkTest.loRaNodes[1].app[0] receivedADRCommands 0
statistic LoRaNetworkTest.loRaNodes[1].app[0] emergencyVariate:histogram
field count 19
field mean 691.62961350209
field stddev 896.85533461742
field min 14.967498340537
field max 3725.2558902161
field sum 13140.96265654
field sqrsum 23566969.765359
attr recordingmode histogram
attr title "Exponential variate samples"
bin	-inf	0
bin	0	3
bin	100	4
bin	200	1
bin	300	2
bin	400	0
bin	500	1
bin	600	0
bin	700	4
bin	800	0
bin	900	2
bin	1000	0
bin	1100	0
bin	1200	0
bin	1300	0
bin	1400	0
bin	1500	0
bin	1600	0
bin	1700	0
bin	1800	0
bin	1900	0
bin	2000	0
bin	2100	1
bin	2200	0
bin	2300	0
bin	2400	0
bin	2500	0
bin	2600	0
bin	2700	0
bin	2800	0
bin	2900	0
bin	3000	0
bin	3100	0
bin	3200	0
bin	3300	0
bin	3400	0
bin	3500	0
bin	3600	0
bin	3700	1
bin	3800	0
bin	3900	0
bin	4000	0
bin	4100	0
bin	4200	0
bin	4300	0
bin	4400	0
bin	4500	0
bin	4600	0
bin	4700	0
scalar LoRaNetworkTest.loRaNodes[1].app[0] normalPacketSent:count 17
attr recordingmode count
attr title "Normal packets sent, count"
scalar LoRaNetworkTest.loRaNodes[1].app[0] normalPacketSent:sum 17
attr recordingmode sum
attr title "Normal packets sent, sum"
scalar LoRaNetworkTest.loRaNodes[1].app[0] urgentPacketSent:count 2
attr recordingmode count
attr title "Urgent packets sent, count"
scalar LoRaNetworkTest.loRaNodes[1].app[0] urgentPacketSent:sum 2
attr recordingmode sum
attr title "Urgent packets sent, sum"
scalar LoRaNetworkTest.loRaNodes[1].app[0] LoRa_AppPacketSent:count 19
attr recordingmode count
attr source LoRa_AppPacketSent
par LoRaNetworkTest.loRaNodes[1] typename "\"flora.LoraNode.LoRaNode\""
par LoRaNetworkTest.loRaNodes[1] numApps 1
par LoRaNetworkTest.loRaNodes[1] deploymentType "\"\""
par LoRaNetworkTest.loRaNodes[1] maxGatewayDistance 320
par LoRaNetworkTest.loRaNodes[1] gatewayX 320
par LoRaNetworkTest.loRaNodes[1] gatewayY 320
par LoRaNetworkTest.loRaNodes[2].interfaceTable typename "\"inet.networklayer.common.InterfaceTable\""
par LoRaNetworkTest.loRaNodes[2].interfaceTable displayAddresses false
par LoRaNetworkTest.loRaNodes[2].mobility typename "\"inet.mobility.static.StationaryMobility\""
par LoRaNetworkTest.loRaNodes[2].mobility subjectModule "\"^\""
par LoRaNetworkTest.loRaNodes[2].mobility coordinateSystemModule "\"\""
par LoRaNetworkTest.loRaNodes[2].mobility displayStringTextFormat "\"p: %p\\nv: %v\""
attr mutable ""
par LoRaNetworkTest.loRaNodes[2].mobility updateDisplayString true
par LoRaNetworkTest.loRaNodes[2].mobility constraintAreaMinX 0m
attr unit m
par LoRaNetworkTest.loRaNodes[2].mobility constraintAreaMinY 0m
attr unit m
par LoRaNetworkTest.loRaNodes[2].mobility constraintAreaMinZ 0m
attr unit m
par LoRaNetworkTest.loRaNodes[2].mobility constraintAreaMaxX 3000m
attr unit m
par LoRaNetworkTest.loRaNodes[2].mobility constraintAreaMaxY 3000m
attr unit m
par LoRaNetworkTest.loRaNodes[2].mobility constraintAreaMaxZ 0m
attr unit m
par LoRaNetworkTest.loRaNodes[2].mobility initialX 590.834m
attr unit m
par LoRaNetworkTest.loRaNodes[2].mobility initialY 247.922m
attr unit m
par LoRaNetworkTest.loRaNodes[2].mobility initialZ 0m
attr unit m
par LoRaNetworkTest.loRaNodes[2].mobility initialLatitude "nan deg"
attr unit deg
par LoRaNetworkTest.loRaNodes[2].mobility initialLongitude "nan deg"
attr unit deg
par LoRaNetworkTest.loRaNodes[2].mobility initialAltitude 0m
attr unit m
par LoRaNetworkTest.loRaNodes[2].mobility initialHeading 0deg
attr unit deg
par LoRaNetworkTest.loRaNodes[2].mobility initialElevation 0deg
attr unit deg
par LoRaNetworkTest.loRaNodes[2].mobility initialBank 0deg
attr unit deg
par LoRaNetworkTest.loRaNodes[2].mobility initFromDisplayString false
par LoRaNetworkTest.loRaNodes[2].mobility updateFromDisplayString true
par LoRaNetworkTest.loRaNodes[2].LoRaNic.radioIn.channel typename "\"ned.IdealChannel\""
par LoRaNetworkTest.loRaNodes[2].LoRaNic.mac.upperLayerOut.channel typename "\"ned.IdealChannel\""
par LoRaNetworkTest.loRaNodes[2].LoRaNic.upperLayerIn.channel typename "\"ned.IdealChannel\""
par LoRaNetworkTest.loRaNodes[2].LoRaNic.queue typename "\"inet.queueing.queue.DropTailQueue\""
par LoRaNetworkTest.loRaNodes[2].LoRaNic.queue displayStringTextFormat "\"contains %p pk (%l) pushed %u\\npulled %o removed %r dropped %d\""
par LoRaNetworkTest.loRaNodes[2].LoRaNic.queue packetCapacity -1
par LoRaNetworkTest.loRaNodes[2].LoRaNic.queue dataCapacity -1b
attr unit b
par LoRaNetworkTest.loRaNodes[2].LoRaNic.queue dropperClass "\"inet::queueing::PacketAtCollectionEndDropper\""
par LoRaNetworkTest.loRaNodes[2].LoRaNic.queue comparatorClass "\"\""
par LoRaNetworkTest.loRaNodes[2].LoRaNic.queue bufferModule "\"\""
scalar LoRaNetworkTest.loRaNodes[2].LoRaNic.queue queueLength:last 0
attr autoWarmupFilter false
attr interpolationmode sample-hold
attr recordingmode last
attr source "warmup(atomic(constant0(packetPushEnded) + count(packetPushStarted) - count(packetPulled) - count(packetRemoved) - count(packetDropped)))"
attr title "queue length, last"
attr unit pk
scalar LoRaNetworkTest.loRaNodes[2].LoRaNic.queue queueLength:max 0
attr autoWarmupFilter false
attr interpolationmode sample-hold
attr recordingmode max
attr source "warmup(atomic(constant0(packetPushEnded) + count(packetPushStarted) - count(packetPulled) - count(packetRemoved) - count(packetDropped)))"
attr title "queue length, max"
attr unit pk
scalar LoRaNetworkTest.loRaNodes[2].LoRaNic.queue queueLength:timeavg 0
attr autoWarmupFilter false
attr interpolationmode sample-hold
attr recordingmode timeavg
attr source "warmup(atomic(constant0(packetPushEnded) + count(packetPushStarted) - count(packetPulled) - count(packetRemoved) - count(packetDropped)))"
attr title "queue length, timeavg"
attr unit pk
scalar LoRaNetworkTest.loRaNodes[2].LoRaNic.queue queueBitLength:last 0
attr autoWarmupFilter false
attr interpolationmode sample-hold
attr recordingmode last
attr source "warmup(atomic(constant0(packetPushEnded) + sum(packetLength(packetPushStarted)) - sum(packetLength(packetPulled)) - sum(packetLength(packetRemoved)) - sum(packetLength(packetDropped))))"
attr title "queue bit length, last"
attr unit b
scalar LoRaNetworkTest.loRaNodes[2].LoRaNic.queue queueBitLength:max 0
attr autoWarmupFilter false
attr interpolationmode sample-hold
attr recordingmode max
attr source "warmup(atomic(constant0(packetPushEnded) + sum(packetLength(packetPushStarted)) - sum(packetLength(packetPulled)) - sum(packetLength(packetRemoved)) - sum(packetLength(packetDropped))))"
attr title "queue bit length, max"
attr unit b
scalar LoRaNetworkTest.loRaNodes[2].LoRaNic.queue queueBitLength:timeavg 0
attr autoWarmupFilter false
attr interpolationmode sample-hold
attr recordingmode timeavg
attr source "warmup(atomic(constant0(packetPushEnded) + sum(packetLength(packetPushStarted)) - sum(packetLength(packetPulled)) - sum(packetLength(packetRemoved)) - sum(packetLength(packetDropped))))"
attr title "queue bit length, timeavg"
attr unit b
statistic LoRaNetworkTest.loRaNodes[2].LoRaNic.queue queueingTime:histogram
field count 18
field mean 0
field stddev 0
field min 0
field max 0
field sum 0
field sqrsum 0
attr interpolationmode none
attr recordingmode histogram
attr source queueingTime(packetPulled)
attr title "queueing times"
attr unit s
bin	-inf	0
bin	-0.5	0
bin	-0.48	0
bin	-0.46	0
bin	-0.44	0
bin	-0.42	0
bin	-0.4	0
bin	-0.38	0
bin	-0.36	0
bin	-0.34	0
bin	-0.32	0
bin	-0.3	0
bin	-0.28	0
bin	-0.26	0
bin	-0.24	0
bin	-0.22	0
bin	-0.2	0
bin	-0.18	0
bin	-0.16	0
bin	-0.14	0
bin	-0.12	0
bin	-0.1	0
bin	-0.08	0
bin	-0.06	0
bin	-0.04	0
bin	-0.02	0
bin	0	18
bin	0.02	0
bin	0.04	0
bin	0.06	0
bin	0.08	0
bin	0.1	0
bin	0.12	0
bin	0.14	0
bin	0.16	0
bin	0.18	0
bin	0.2	0
bin	0.22	0
bin	0.24	0
bin	0.26	0
bin	0.28	0
bin	0.3	0
bin	0.32	0
bin	0.34	0
bin	0.36	0
bin	0.38	0
bin	0.4	0
bin	0.42	0
bin	0.44	0
bin	0.46	0
bin	0.48	0
bin	0.5	0
scalar LoRaNetworkTest.loRaNodes[2].LoRaNic.queue outgoingPackets:count 18
attr recordingmode count
attr source packetPulled
attr title "outgoing packets, count"
attr unit pk
scalar LoRaNetworkTest.loRaNodes[2].LoRaNic.queue outgoingPacketLengths:sum 1440
attr interpolationmode none
attr recordingmode sum
attr source packetLength(packetPulled)
attr title "outgoing packet lengths, sum"
attr unit b
statistic LoRaNetworkTest.loRaNodes[2].LoRaNic.queue outgoingPacketLengths:histogram
field count 18
field mean 80
field stddev 0
field min 80
field max 80
field sum 1440
field sqrsum 115200
attr interpolationmode none
attr recordingmode histogram
attr source packetLength(packetPulled)
attr title "outgoing packet lengths"
attr unit b
bin	-inf	0
bin	79	0
bin	80	18
bin	81	0
statistic LoRaNetworkTest.loRaNodes[2].LoRaNic.queue flowQueueingTime:histogram
field count 0
field mean -nan
field stddev -nan
field min -nan
field max -nan
field sum 0
field sqrsum 0
attr interpolationmode none
attr recordingmode histogram
attr source queueingTime(demuxFlow(packetPulled))
attr title "flow queueing times"
attr unit s
bin	-inf	0
bin	0	0
bin	1	0
scalar LoRaNetworkTest.loRaNodes[2].LoRaNic.queue incomingPackets:count 18
attr recordingmode count
attr source packetPushStarted
attr title "incoming packets, count"
attr unit pk
scalar LoRaNetworkTest.loRaNodes[2].LoRaNic.queue incomingPacketLengths:sum 1440
attr interpolationmode none
attr recordingmode sum
attr source packetLength(packetPushStarted)
attr title "incoming packet lengths, sum"
attr unit b
statistic LoRaNetworkTest.loRaNodes[2].LoRaNic.queue incomingPacketLengths:histogram
field count 18
field mean 80
field stddev 0
field min 80
field max 80
field sum 1440
field sqrsum 115200
attr interpolationmode none
attr recordingmode histogram
attr source packetLength(packetPushStarted)
attr title "incoming packet lengths"
attr unit b
bin	-inf	0
bin	79	0
bin	80	18
bin	81	0
scalar LoRaNetworkTest.loRaNodes[2].LoRaNic.queue droppedPacketsQueueOverflow:count 0
attr interpolationmode none
attr recordingmode count
attr source packetDropReasonIsQueueOverflow(packetDropped)
attr title "dropped packets: queue overflow, count"
attr unit pk
scalar LoRaNetworkTest.loRaNodes[2].LoRaNic.queue droppedPacketLengthsQueueOverflow:sum 0
attr interpolationmode none
attr recordingmode sum
attr source packetLength(packetDropReasonIsQueueOverflow(packetDropped))
attr title "dropped packet lengths: queue overflow, sum"
attr unit b
par LoRaNetworkTest.loRaNodes[2].LoRaNic.mac typename "\"flora.LoRa.LoRaMac\""
par LoRaNetworkTest.loRaNodes[2].LoRaNic.mac interfaceTableModule "\"LoRaNetworkTest.loRaNodes[2].interfaceTable\""
par LoRaNetworkTest.loRaNodes[2].LoRaNic.mac radioModule "\"^.radio\""
par LoRaNetworkTest.loRaNodes[2].LoRaNic.mac address "\"0A-AA-00-00-00-03\""
attr mutable ""
par LoRaNetworkTest.loRaNodes[2].LoRaNic.mac fcsMode "\"declared\""
attr enum declared,computed
par LoRaNetworkTest.loRaNodes[2].LoRaNic.mac useAck true
par LoRaNetworkTest.loRaNodes[2].LoRaNic.mac bitrate 250bps
attr unit bps
par LoRaNetworkTest.loRaNodes[2].LoRaNic.mac headerLength 17B
attr unit B
par LoRaNetworkTest.loRaNodes[2].LoRaNic.mac ackLength 14B
attr unit B
par LoRaNetworkTest.loRaNodes[2].LoRaNic.mac sifsTime 1e-05s
attr unit s
par LoRaNetworkTest.loRaNodes[2].LoRaNic.mac slotTime 2e-05s
attr unit s
par LoRaNetworkTest.loRaNodes[2].LoRaNic.mac difsTime 5e-05s
attr unit s
par LoRaNetworkTest.loRaNodes[2].LoRaNic.mac ackTimeout 0.44803s
attr unit s
par LoRaNetworkTest.loRaNodes[2].LoRaNic.mac mtu 1500
par LoRaNetworkTest.loRaNodes[2].LoRaNic.mac cwMin 31
par LoRaNetworkTest.loRaNodes[2].LoRaNic.mac cwMax 1023
par LoRaNetworkTest.loRaNodes[2].LoRaNic.mac cwMulticast 31
par LoRaNetworkTest.loRaNodes[2].LoRaNic.mac retryLimit 7
scalar LoRaNetworkTest.loRaNodes[2].LoRaNic.mac numRetry 0
scalar LoRaNetworkTest.loRaNodes[2].LoRaNic.mac numSentWithoutRetry 0
scalar LoRaNetworkTest.loRaNodes[2].LoRaNic.mac numGivenUp 0
scalar LoRaNetworkTest.loRaNodes[2].LoRaNic.mac numSent 19
scalar LoRaNetworkTest.loRaNodes[2].LoRaNic.mac numReceived 0
scalar LoRaNetworkTest.loRaNodes[2].LoRaNic.mac numSentBroadcast 0
scalar LoRaNetworkTest.loRaNodes[2].LoRaNic.mac numReceivedBroadcast 0
scalar LoRaNetworkTest.loRaNodes[2].LoRaNic.mac packetDropIncorrectlyReceived:count 0
attr interpolationmode none
attr recordingmode count
attr source packetDropReasonIsIncorrectlyReceived(packetDropped)
attr title "packet drop: incorrectly received, count"
scalar LoRaNetworkTest.loRaNodes[2].LoRaNic.mac packetDropIncorrectlyReceived:sum(packetBytes) 0
attr interpolationmode none
attr recordingmode sum(packetBytes)
attr source packetDropReasonIsIncorrectlyReceived(packetDropped)
attr title "packet drop: incorrectly received, sum(packetBytes)"
scalar LoRaNetworkTest.loRaNodes[2].LoRaNic.mac packetDropNotAddressedToUs:count 0
attr interpolationmode none
attr recordingmode count
attr source packetDropReasonIsNotAddressedToUs(packetDropped)
attr title "packet drop: not addressed to us, count"
scalar LoRaNetworkTest.loRaNodes[2].LoRaNic.mac packetDropNotAddressedToUs:sum(packetBytes) 0
attr interpolationmode none
attr recordingmode sum(packetBytes)
attr source packetDropReasonIsNotAddressedToUs(packetDropped)
attr title "packet drop: not addressed to us, sum(packetBytes)"
scalar LoRaNetworkTest.loRaNodes[2].LoRaNic.mac packetDropQueueOverflow:count 0
attr interpolationmode none
attr recordingmode count
attr source packetDropReasonIsQueueOverflow(packetDropped)
attr title "packet drop: queue overflow, count"
scalar LoRaNetworkTest.loRaNodes[2].LoRaNic.mac packetDropQueueOverflow:sum(packetBytes) 0
attr interpolationmode none
attr recordingmode sum(packetBytes)
attr source packetDropReasonIsQueueOverflow(packetDropped)
attr title "packet drop: queue overflow, sum(packetBytes)"
scalar LoRaNetworkTest.loRaNodes[2].LoRaNic.mac packetDropRetryLimitReached:count 0
attr interpolationmode none
attr recordingmode count
[...]
attr title "dropped packets: queue overflow, count"
attr unit pk
scalar LoRaNetworkTest.gwRouter.eth[1].queue droppedPacketLengthsQueueOverflow:sum 0
attr interpolationmode none
attr recordingmode sum
attr source packetLength(packetDropReasonIsQueueOverflow(packetDropped))
attr title "dropped packet lengths: queue overflow, sum"
attr unit b
par LoRaNetworkTest.gwRouter.eth[1].mac typename "\"inet.linklayer.ethernet.basic.EthernetMac\""
par LoRaNetworkTest.gwRouter.eth[1].mac interfaceTableModule "\"LoRaNetworkTest.gwRouter.interfaceTable\""
par LoRaNetworkTest.gwRouter.eth[1].mac displayStringTextFormat "\"rate: %b\\nsent: %s, rcvd: %r\\nqueue: %q, drop: %d\""
par LoRaNetworkTest.gwRouter.eth[1].mac sendRawBytes false
par LoRaNetworkTest.gwRouter.eth[1].mac promiscuous false
par LoRaNetworkTest.gwRouter.eth[1].mac duplexMode true
par LoRaNetworkTest.gwRouter.eth[1].mac mtu 1500B
attr unit B
par LoRaNetworkTest.gwRouter.eth[1].mac fcsMode "\"declared\""
attr enum declared,computed
par LoRaNetworkTest.gwRouter.eth[1].mac stopOperationExtraTime -1s
attr unit s
par LoRaNetworkTest.gwRouter.eth[1].mac stopOperationTimeout 2s
attr unit s
scalar LoRaNetworkTest.gwRouter.eth[1].mac "simulated time" 3600
scalar LoRaNetworkTest.gwRouter.eth[1].mac full-duplex 1
scalar LoRaNetworkTest.gwRouter.eth[1].mac "frames/sec sent" 0.055555555555556
scalar LoRaNetworkTest.gwRouter.eth[1].mac "frames/sec rcvd" 0.0072222222222222
scalar LoRaNetworkTest.gwRouter.eth[1].mac "bits/sec sent" 31.924444444444
scalar LoRaNetworkTest.gwRouter.eth[1].mac "bits/sec rcvd" 3.6977777777778
scalar LoRaNetworkTest.gwRouter.eth[1].mac "rx channel idle (%)" 99.999999584
scalar LoRaNetworkTest.gwRouter.eth[1].mac "rx channel utilization (%)" 4.16e-07
scalar LoRaNetworkTest.gwRouter.eth[1].mac rxPausePkUnits:count 0
attr interpolationmode none
attr recordingmode count
attr title "pause units received, count"
scalar LoRaNetworkTest.gwRouter.eth[1].mac rxPausePkUnits:sum 0
attr interpolationmode none
attr recordingmode sum
attr title "pause units received, sum"
scalar LoRaNetworkTest.gwRouter.eth[1].mac txPausePkUnits:count 0
attr interpolationmode none
attr recordingmode count
attr title "pause units sent, count"
scalar LoRaNetworkTest.gwRouter.eth[1].mac txPausePkUnits:sum 0
attr interpolationmode none
attr recordingmode sum
attr title "pause units sent, sum"
scalar LoRaNetworkTest.gwRouter.eth[1].mac rxPkOk:count 25
attr interpolationmode none
attr recordingmode count
attr source rxPkOk
attr title "packets received OK, count"
scalar LoRaNetworkTest.gwRouter.eth[1].mac rxPkOk:sum(packetBytes) 1600
attr interpolationmode none
attr recordingmode sum(packetBytes)
attr source rxPkOk
attr title "packets received OK, sum(packetBytes)"
scalar LoRaNetworkTest.gwRouter.eth[1].mac txPk:count 192
attr interpolationmode none
attr recordingmode count
attr source packetSentToLower
attr title "packets transmitted, count"
scalar LoRaNetworkTest.gwRouter.eth[1].mac txPk:sum(packetBytes) 13791
attr interpolationmode none
attr recordingmode sum(packetBytes)
attr source packetSentToLower
attr title "packets transmitted, sum(packetBytes)"
scalar LoRaNetworkTest.gwRouter.eth[1].mac packetReceivedFromUpper:count 192
attr interpolationmode none
attr recordingmode count
attr source packetReceivedFromUpper
attr title "packet bytes from higher layer, count"
scalar LoRaNetworkTest.gwRouter.eth[1].mac packetReceivedFromUpper:sum(packetBytes) 13341
attr interpolationmode none
attr recordingmode sum(packetBytes)
attr source packetReceivedFromUpper
attr title "packet bytes from higher layer, sum(packetBytes)"
scalar LoRaNetworkTest.gwRouter.eth[1].mac passedUpPk:count 25
attr interpolationmode none
attr recordingmode count
attr source packetSentToUpper
attr title "packets passed to higher layer, count"
scalar LoRaNetworkTest.gwRouter.eth[1].mac passedUpPk:sum(packetBytes) 1600
attr interpolationmode none
attr recordingmode sum(packetBytes)
attr source packetSentToUpper
attr title "packets passed to higher layer, sum(packetBytes)"
scalar LoRaNetworkTest.gwRouter.eth[1].mac packetDropIncorrectlyReceived:count 0
attr interpolationmode none
attr recordingmode count
attr source packetDropReasonIsIncorrectlyReceived(packetDropped)
attr title "packet drop: incorrectly received, count"
scalar LoRaNetworkTest.gwRouter.eth[1].mac packetDropIncorrectlyReceived:sum(packetBytes) 0
attr interpolationmode none
attr recordingmode sum(packetBytes)
attr source packetDropReasonIsIncorrectlyReceived(packetDropped)
attr title "packet drop: incorrectly received, sum(packetBytes)"
scalar LoRaNetworkTest.gwRouter.eth[1].mac packetDropInterfaceDown:count 0
attr interpolationmode none
attr recordingmode count
attr source packetDropReasonIsInterfaceDown(packetDropped)
attr title "packet drop: interface down, count"
scalar LoRaNetworkTest.gwRouter.eth[1].mac packetDropInterfaceDown:sum(packetBytes) 0
attr interpolationmode none
attr recordingmode sum(packetBytes)
attr source packetDropReasonIsInterfaceDown(packetDropped)
attr title "packet drop: interface down, sum(packetBytes)"
scalar LoRaNetworkTest.gwRouter.eth[1].mac packetDropNotAddressedToUs:count 0
attr interpolationmode none
attr recordingmode count
attr source packetDropReasonIsNotAddressedToUs(packetDropped)
attr title "packet drop: not addressed to us, count"
scalar LoRaNetworkTest.gwRouter.eth[1].mac packetDropNotAddressedToUs:sum(packetBytes) 0
attr interpolationmode none
attr recordingmode sum(packetBytes)
attr source packetDropReasonIsNotAddressedToUs(packetDropped)
attr title "packet drop: not addressed to us, sum(packetBytes)"
par LoRaNetworkTest.gwRouter.eth[1] typename "\"inet.linklayer.ethernet.EthernetInterface\""
par LoRaNetworkTest.gwRouter.eth[1] displayStringTextFormat "\"%a (%i)\\n%m\""
par LoRaNetworkTest.gwRouter.eth[1] recordPcap false
par LoRaNetworkTest.gwRouter.eth[1] numPcapRecorders 0
par LoRaNetworkTest.gwRouter.eth[1] interfaceTableModule "\"LoRaNetworkTest.gwRouter.interfaceTable\""
par LoRaNetworkTest.gwRouter.eth[1] protocol "\"ethernetmac\""
par LoRaNetworkTest.gwRouter.eth[1] address "\"0A-AA-00-00-00-19\""
attr mutable ""
par LoRaNetworkTest.gwRouter.eth[1] duplexMode true
par LoRaNetworkTest.gwRouter.eth[1] csmacdSupport false
par LoRaNetworkTest.gwRouter.eth[1] bitrate 0bps
attr unit bps
par LoRaNetworkTest.gwRouter.eth[1] fcsMode "\"declared\""
attr enum declared,computed
scalar LoRaNetworkTest.gwRouter.eth[1] packetDropInterfaceDown:count 0
attr interpolationmode none
attr recordingmode count
attr source packetDropReasonIsInterfaceDown(packetDropped)
attr title "packet drops: interface down, count"
scalar LoRaNetworkTest.gwRouter.eth[1] packetDropInterfaceDown:sum(packetBytes) 0
attr interpolationmode none
attr recordingmode sum(packetBytes)
attr source packetDropReasonIsInterfaceDown(packetDropped)
attr title "packet drops: interface down, sum(packetBytes)"
scalar LoRaNetworkTest.gwRouter.eth[1] packetDropNoCarrier:count 0
attr interpolationmode none
attr recordingmode count
attr source packetDropReasonIsNoCarrier(packetDropped)
attr title "packet drops: no carrier, count"
scalar LoRaNetworkTest.gwRouter.eth[1] packetDropNoCarrier:sum(packetBytes) 0
attr interpolationmode none
attr recordingmode sum(packetBytes)
attr source packetDropReasonIsNoCarrier(packetDropped)
attr title "packet drops: no carrier, sum(packetBytes)"
par LoRaNetworkTest.gwRouter.ipv4.transportIn.channel typename "\"ned.IdealChannel\""
par LoRaNetworkTest.gwRouter.ipv4.up.out[0].channel typename "\"ned.IdealChannel\""
par LoRaNetworkTest.gwRouter.ipv4.lp.out[2].channel typename "\"ned.IdealChannel\""
par LoRaNetworkTest.gwRouter.ipv4.ifIn.channel typename "\"ned.IdealChannel\""
par LoRaNetworkTest.gwRouter.ipv4.configurator typename "\"inet.networklayer.configurator.ipv4.Ipv4NodeConfigurator\""
par LoRaNetworkTest.gwRouter.ipv4.configurator interfaceTableModule "\"LoRaNetworkTest.gwRouter.interfaceTable\""
par LoRaNetworkTest.gwRouter.ipv4.configurator routingTableModule "\"LoRaNetworkTest.gwRouter.ipv4.routingTable\""
par LoRaNetworkTest.gwRouter.ipv4.configurator networkConfiguratorModule "\"configurator\""
par LoRaNetworkTest.gwRouter.ipv4.configurator configureRoutingTable true
par LoRaNetworkTest.gwRouter.ipv4.routingTable typename "\"inet.networklayer.ipv4.Ipv4RoutingTable\""
par LoRaNetworkTest.gwRouter.ipv4.routingTable interfaceTableModule "\"LoRaNetworkTest.gwRouter.interfaceTable\""
par LoRaNetworkTest.gwRouter.ipv4.routingTable routerId "\"auto\""
par LoRaNetworkTest.gwRouter.ipv4.routingTable netmaskRoutes "\"*\""
par LoRaNetworkTest.gwRouter.ipv4.routingTable forwarding true
par LoRaNetworkTest.gwRouter.ipv4.routingTable multicastForwarding false
par LoRaNetworkTest.gwRouter.ipv4.routingTable useAdminDist false
par LoRaNetworkTest.gwRouter.ipv4.routingTable routingFile "\"\""
par LoRaNetworkTest.gwRouter.ipv4.natTable typename "\"inet.networklayer.ipv4.Ipv4NatTable\""
par LoRaNetworkTest.gwRouter.ipv4.natTable networkProtocolModule "\"^.ip\""
par LoRaNetworkTest.gwRouter.ipv4.natTable config "<config/> at content:1"
par LoRaNetworkTest.gwRouter.ipv4.up typename "\"inet.common.MessageDispatcher\""
par LoRaNetworkTest.gwRouter.ipv4.up displayStringTextFormat "\"processed %p pk (%l)\""
par LoRaNetworkTest.gwRouter.ipv4.up forwardServiceRegistration true
par LoRaNetworkTest.gwRouter.ipv4.up forwardProtocolRegistration true
par LoRaNetworkTest.gwRouter.ipv4.igmp typename "\"inet.networklayer.ipv4.Igmpv2\""
par LoRaNetworkTest.gwRouter.ipv4.igmp interfaceTableModule "\"LoRaNetworkTest.gwRouter.interfaceTable\""
par LoRaNetworkTest.gwRouter.ipv4.igmp routingTableModule "\"LoRaNetworkTest.gwRouter.ipv4.routingTable\""
par LoRaNetworkTest.gwRouter.ipv4.igmp crcMode "\"declared\""
attr enum declared,computed
par LoRaNetworkTest.gwRouter.ipv4.igmp enabled true
par LoRaNetworkTest.gwRouter.ipv4.igmp robustnessVariable 2
par LoRaNetworkTest.gwRouter.ipv4.igmp queryInterval 125s
attr unit s
par LoRaNetworkTest.gwRouter.ipv4.igmp queryResponseInterval 10s
attr unit s
par LoRaNetworkTest.gwRouter.ipv4.igmp groupMembershipInterval 260s
attr unit s
par LoRaNetworkTest.gwRouter.ipv4.igmp otherQuerierPresentInterval 255s
attr unit s
par LoRaNetworkTest.gwRouter.ipv4.igmp startupQueryInterval 31.25s
attr unit s
par LoRaNetworkTest.gwRouter.ipv4.igmp startupQueryCount 2
par LoRaNetworkTest.gwRouter.ipv4.igmp lastMemberQueryInterval 1s
attr unit s
par LoRaNetworkTest.gwRouter.ipv4.igmp lastMemberQueryCount 2
par LoRaNetworkTest.gwRouter.ipv4.igmp unsolicitedReportInterval 10s
attr unit s
par LoRaNetworkTest.gwRouter.ipv4.icmp typename "\"inet.networklayer.ipv4.Icmp\""
par LoRaNetworkTest.gwRouter.ipv4.icmp interfaceTableModule "\"LoRaNetworkTest.gwRouter.interfaceTable\""
par LoRaNetworkTest.gwRouter.ipv4.icmp routingTableModule "\"LoRaNetworkTest.gwRouter.ipv4.routingTable\""
par LoRaNetworkTest.gwRouter.ipv4.icmp crcMode "\"declared\""
attr enum declared,computed
attr mutable ""
par LoRaNetworkTest.gwRouter.ipv4.icmp quoteLength 8B
attr mutable ""
attr unit B
par LoRaNetworkTest.gwRouter.ipv4.mp typename "\"inet.common.MessageDispatcher\""
par LoRaNetworkTest.gwRouter.ipv4.mp displayStringTextFormat "\"processed %p pk (%l)\""
par LoRaNetworkTest.gwRouter.ipv4.mp forwardServiceRegistration true
par LoRaNetworkTest.gwRouter.ipv4.mp forwardProtocolRegistration true
par LoRaNetworkTest.gwRouter.ipv4.ip typename "\"inet.networklayer.ipv4.Ipv4\""
par LoRaNetworkTest.gwRouter.ipv4.ip interfaceTableModule "\"LoRaNetworkTest.gwRouter.interfaceTable\""
par LoRaNetworkTest.gwRouter.ipv4.ip routingTableModule "\"LoRaNetworkTest.gwRouter.ipv4.routingTable\""
par LoRaNetworkTest.gwRouter.ipv4.ip arpModule "\"LoRaNetworkTest.gwRouter.ipv4.arp\""
par LoRaNetworkTest.gwRouter.ipv4.ip icmpModule "\"LoRaNetworkTest.gwRouter.ipv4.icmp\""
par LoRaNetworkTest.gwRouter.ipv4.ip crcMode "\"declared\""
attr enum declared,computed
par LoRaNetworkTest.gwRouter.ipv4.ip timeToLive 32
par LoRaNetworkTest.gwRouter.ipv4.ip multicastTimeToLive 32
par LoRaNetworkTest.gwRouter.ipv4.ip fragmentTimeout 60s
attr unit s
par LoRaNetworkTest.gwRouter.ipv4.ip limitedBroadcast false
par LoRaNetworkTest.gwRouter.ipv4.ip directBroadcastInterfaces "\"\""
scalar LoRaNetworkTest.gwRouter.ipv4.ip packetDropAddressResolutionFailed:count 0
attr interpolationmode none
attr recordingmode count
attr source packetDropReasonIsAddressResolutionFailed(packetDropped)
attr title "packet drop: address resolution failed, count"
scalar LoRaNetworkTest.gwRouter.ipv4.ip packetDropAddressResolutionFailed:sum(packetBytes) 0
attr interpolationmode none
attr recordingmode sum(packetBytes)
attr source packetDropReasonIsAddressResolutionFailed(packetDropped)
attr title "packet drop: address resolution failed, sum(packetBytes)"
scalar LoRaNetworkTest.gwRouter.ipv4.ip packetDropHopLimitReached:count 0
attr interpolationmode none
attr recordingmode count
attr source packetDropReasonIsHopLimitReached(packetDropped)
attr title "packet drop: hop limit reached, count"
scalar LoRaNetworkTest.gwRouter.ipv4.ip packetDropHopLimitReached:sum(packetBytes) 0
attr interpolationmode none
attr recordingmode sum(packetBytes)
attr source packetDropReasonIsHopLimitReached(packetDropped)
attr title "packet drop: hop limit reached, sum(packetBytes)"
scalar LoRaNetworkTest.gwRouter.ipv4.ip packetDropForwardingDisabled:count 0
attr interpolationmode none
attr recordingmode count
attr source packetDropReasonIsForwardingDisabled(packetDropped)
attr title "packet drop: forwarding disabled, count"
scalar LoRaNetworkTest.gwRouter.ipv4.ip packetDropForwardingDisabled:sum(packetBytes) 0
attr interpolationmode none
attr recordingmode sum(packetBytes)
attr source packetDropReasonIsForwardingDisabled(packetDropped)
attr title "packet drop: forwarding disabled, sum(packetBytes)"
scalar LoRaNetworkTest.gwRouter.ipv4.ip packetDropNoInterfaceFound:count 0
attr interpolationmode none
attr recordingmode count
attr source packetDropReasonIsNoInterfaceFound(packetDropped)
attr title "packet drop: no interface found, count"
scalar LoRaNetworkTest.gwRouter.ipv4.ip packetDropNoInterfaceFound:sum(packetBytes) 0
attr interpolationmode none
attr recordingmode sum(packetBytes)
attr source packetDropReasonIsNoInterfaceFound(packetDropped)
attr title "packet drop: no interface found, sum(packetBytes)"
scalar LoRaNetworkTest.gwRouter.ipv4.ip packetDropNoRouteFound:count 0
attr interpolationmode none
attr recordingmode count
attr source packetDropReasonIsNoRouteFound(packetDropped)
attr title "packet drop: no route found, count"
scalar LoRaNetworkTest.gwRouter.ipv4.ip packetDropNoRouteFound:sum(packetBytes) 0
attr interpolationmode none
attr recordingmode sum(packetBytes)
attr source packetDropReasonIsNoRouteFound(packetDropped)
attr title "packet drop: no route found, sum(packetBytes)"
scalar LoRaNetworkTest.gwRouter.ipv4.ip packetDropUndefined:count 0
attr interpolationmode none
attr recordingmode count
attr source packetDropReasonIsUndefined(packetDropped)
attr title "packet drop: undefined, count"
scalar LoRaNetworkTest.gwRouter.ipv4.ip packetDropUndefined:sum(packetBytes) 0
attr interpolationmode none
attr recordingmode sum(packetBytes)
attr source packetDropReasonIsUndefined(packetDropped)
attr title "packet drop: undefined, sum(packetBytes)"
par LoRaNetworkTest.gwRouter.ipv4.arp typename "\"inet.networklayer.arp.ipv4.Arp\""
par LoRaNetworkTest.gwRouter.ipv4.arp interfaceTableModule "\"LoRaNetworkTest.gwRouter.interfaceTable\""
par LoRaNetworkTest.gwRouter.ipv4.arp routingTableModule "\"LoRaNetworkTest.gwRouter.ipv4.routingTable\""
par LoRaNetworkTest.gwRouter.ipv4.arp retryTimeout 1s
attr unit s
par LoRaNetworkTest.gwRouter.ipv4.arp retryCount 3
par LoRaNetworkTest.gwRouter.ipv4.arp cacheTimeout 120s
attr unit s
par LoRaNetworkTest.gwRouter.ipv4.arp proxyArpInterfaces "\"*\""
scalar LoRaNetworkTest.gwRouter.ipv4.arp arpResolutionFailed:count 0
attr recordingmode count
attr title "ARP failed resolutions, count"
scalar LoRaNetworkTest.gwRouter.ipv4.arp arpResolutionCompleted:count 50
attr recordingmode count
attr title "ARP completed resolutions, count"
scalar LoRaNetworkTest.gwRouter.ipv4.arp arpResolutionInitiated:count 25
attr recordingmode count
attr title "ARP initiated resolutions, count"
scalar LoRaNetworkTest.gwRouter.ipv4.arp arpReplySent:count 25
attr recordingmode count
attr source arpReplySent
attr title "ARP replies sent, count"
scalar LoRaNetworkTest.gwRouter.ipv4.arp arpReplySent:sum(packetBytes) 700
attr recordingmode sum(packetBytes)
attr source arpReplySent
attr title "ARP replies sent, sum(packetBytes)"
scalar LoRaNetworkTest.gwRouter.ipv4.arp arpRequestSent:count 25
attr recordingmode count
attr source arpRequestSent
attr title "ARP request sent, count"
scalar LoRaNetworkTest.gwRouter.ipv4.arp arpRequestSent:sum(packetBytes) 700
attr recordingmode sum(packetBytes)
attr source arpRequestSent
attr title "ARP request sent, sum(packetBytes)"
par LoRaNetworkTest.gwRouter.ipv4.lp typename "\"inet.common.MessageDispatcher\""
par LoRaNetworkTest.gwRouter.ipv4.lp displayStringTextFormat "\"processed %p pk (%l)\""
par LoRaNetworkTest.gwRouter.ipv4.lp forwardServiceRegistration true
par LoRaNetworkTest.gwRouter.ipv4.lp forwardProtocolRegistration true
par LoRaNetworkTest.gwRouter.ipv4 typename "\"inet.networklayer.ipv4.Ipv4NetworkLayer\""
par LoRaNetworkTest.gwRouter.ipv4 forwarding true
par LoRaNetworkTest.gwRouter.ipv4 multicastForwarding false
par LoRaNetworkTest.gwRouter.ipv4 interfaceTableModule "\"LoRaNetworkTest.gwRouter.interfaceTable\""
par LoRaNetworkTest.gwRouter.ipv4 displayStringTextFormat "\"%i\""
par LoRaNetworkTest.gwRouter.nl typename "\"inet.common.MessageDispatcher\""
par LoRaNetworkTest.gwRouter.nl displayStringTextFormat "\"processed %p pk (%l)\""
par LoRaNetworkTest.gwRouter.nl forwardServiceRegistration true
par LoRaNetworkTest.gwRouter.nl forwardProtocolRegistration true
par LoRaNetworkTest.gwRouter.tn typename "\"inet.common.MessageDispatcher\""
par LoRaNetworkTest.gwRouter.tn displayStringTextFormat "\"processed %p pk (%l)\""
par LoRaNetworkTest.gwRouter.tn forwardServiceRegistration true
par LoRaNetworkTest.gwRouter.tn forwardProtocolRegistration true
par LoRaNetworkTest.gwRouter.at typename "\"inet.common.MessageDispatcher\""
par LoRaNetworkTest.gwRouter.at displayStringTextFormat "\"processed %p pk (%l)\""
par LoRaNetworkTest.gwRouter.at forwardServiceRegistration true
par LoRaNetworkTest.gwRouter.at forwardProtocolRegistration true
par LoRaNetworkTest.gwRouter typename "\"inet.node.inet.Router\""
par LoRaNetworkTest.gwRouter hasStatus false
par LoRaNetworkTest.gwRouter osgModel "\"\""
par LoRaNetworkTest.gwRouter osgModelColor "\"\""
par LoRaNetworkTest.gwRouter canvasImage "\"\""
par LoRaNetworkTest.gwRouter canvasImageColor "\"\""
par LoRaNetworkTest.gwRouter recordPcap false
par LoRaNetworkTest.gwRouter numPcapRecorders 0
par LoRaNetworkTest.gwRouter numLoInterfaces 1
par LoRaNetworkTest.gwRouter numWlanInterfaces 0
par LoRaNetworkTest.gwRouter numEthInterfaces 0
par LoRaNetworkTest.gwRouter numPppInterfaces 0
par LoRaNetworkTest.gwRouter numTunInterfaces 0
par LoRaNetworkTest.gwRouter numVirtInterfaces 0
par LoRaNetworkTest.gwRouter fcsMode "\"declared\""
attr enum declared,computed
par LoRaNetworkTest.gwRouter hasIpv4 true
par LoRaNetworkTest.gwRouter hasIpv6 false
par LoRaNetworkTest.gwRouter hasGn false
par LoRaNetworkTest.gwRouter forwarding true
par LoRaNetworkTest.gwRouter multicastForwarding false
par LoRaNetworkTest.gwRouter hasUdp false
par LoRaNetworkTest.gwRouter hasTcp false
par LoRaNetworkTest.gwRouter hasSctp false
par LoRaNetworkTest.gwRouter numApps 0
par LoRaNetworkTest.gwRouter hasEigrp false
par LoRaNetworkTest.gwRouter hasOspf false
par LoRaNetworkTest.gwRouter hasRip false
par LoRaNetworkTest.gwRouter hasBgp false
par LoRaNetworkTest.gwRouter hasPim false
par LoRaNetworkTest.gwRouter hasDhcp false
par LoRaNetworkTest typename "\"test2.LoRaNetworkTest\""
par LoRaNetworkTest numPatients 20

