version 3
run N50-28-20260518-02:26:55-159863
attr configname N50
attr datetime 20260518-02:26:55
attr datetimef 20260518-022655
attr experiment N50
attr inifile omnetpp.ini
attr iterationvars "$0=\"avg\""
attr iterationvarsd avg
attr iterationvarsf avg-
attr measurement "$0=\"avg\""
attr network test2.LoRaNetworkTest
attr processid 159863
attr repetition 28
attr replication #28
attr resultdir results
attr runnumber 28
attr seedset 28
config extends General
config **.numPatients 50
config network test2.LoRaNetworkTest
config sim-time-limit 1h
config warmup-period 60s
config simtime-resolution -11
config repeat 30
config rng-class cMersenneTwister
config record-eventlog false
config **.numPatients 20
config **.HospitalServer.app[0].queueLength:vector.vector-recording true
config **.HospitalServer.app[0].urgentWaitTime:vector.vector-recording true
config **.HospitalServer.app[0].normalWaitTime:vector.vector-recording true
config **.HospitalServer.app[0].urgentEndToEndDelay:vector.vector-recording true
config **.HospitalServer.app[0].normalEndToEndDelay:vector.vector-recording true
config **.loRaNodes[*].app[0].emergencyVariate:vector.vector-recording true
config **.vector-recording false
config **.loRaNodes[0].**.initialX "300m + uniform(-10m, 10m)"
config **.loRaNodes[0].**.initialY "250m + uniform(-8m, 8m)"
config **.loRaNodes[1].**.initialX "450m + uniform(-10m, 10m)"
config **.loRaNodes[1].**.initialY "250m + uniform(-8m, 8m)"
config **.loRaNodes[2].**.initialX "600m + uniform(-10m, 10m)"
config **.loRaNodes[2].**.initialY "250m + uniform(-8m, 8m)"
config **.loRaNodes[3].**.initialX "750m + uniform(-10m, 10m)"
config **.loRaNodes[3].**.initialY "250m + uniform(-8m, 8m)"
config **.loRaNodes[4].**.initialX "900m + uniform(-10m, 10m)"
config **.loRaNodes[4].**.initialY "250m + uniform(-8m, 8m)"
config **.loRaNodes[5].**.initialX "1050m + uniform(-10m, 10m)"
config **.loRaNodes[5].**.initialY "250m + uniform(-8m, 8m)"
config **.loRaNodes[6].**.initialX "1200m + uniform(-10m, 10m)"
config **.loRaNodes[6].**.initialY "250m + uniform(-8m, 8m)"
config **.loRaNodes[7].**.initialX "1350m + uniform(-10m, 10m)"
config **.loRaNodes[7].**.initialY "250m + uniform(-8m, 8m)"
config **.loRaNodes[8].**.initialX "1500m + uniform(-10m, 10m)"
config **.loRaNodes[8].**.initialY "250m + uniform(-8m, 8m)"
config **.loRaNodes[9].**.initialX "1650m + uniform(-10m, 10m)"
config **.loRaNodes[9].**.initialY "250m + uniform(-8m, 8m)"
config **.loRaNodes[10].**.initialX "300m + uniform(-10m, 10m)"
config **.loRaNodes[10].**.initialY "370m + uniform(-8m, 8m)"
config **.loRaNodes[11].**.initialX "450m + uniform(-10m, 10m)"
config **.loRaNodes[11].**.initialY "370m + uniform(-8m, 8m)"
config **.loRaNodes[12].**.initialX "600m + uniform(-10m, 10m)"
config **.loRaNodes[12].**.initialY "370m + uniform(-8m, 8m)"
config **.loRaNodes[13].**.initialX "750m + uniform(-10m, 10m)"
config **.loRaNodes[13].**.initialY "370m + uniform(-8m, 8m)"
config **.loRaNodes[14].**.initialX "900m + uniform(-10m, 10m)"
config **.loRaNodes[14].**.initialY "370m + uniform(-8m, 8m)"
config **.loRaNodes[15].**.initialX "1050m + uniform(-10m, 10m)"
config **.loRaNodes[15].**.initialY "370m + uniform(-8m, 8m)"
config **.loRaNodes[16].**.initialX "1200m + uniform(-10m, 10m)"
config **.loRaNodes[16].**.initialY "370m + uniform(-8m, 8m)"
config **.loRaNodes[17].**.initialX "1350m + uniform(-10m, 10m)"
config **.loRaNodes[17].**.initialY "370m + uniform(-8m, 8m)"
config **.loRaNodes[18].**.initialX "1500m + uniform(-10m, 10m)"
config **.loRaNodes[18].**.initialY "370m + uniform(-8m, 8m)"
config **.loRaNodes[19].**.initialX "1650m + uniform(-10m, 10m)"
config **.loRaNodes[19].**.initialY "370m + uniform(-8m, 8m)"
config **.loRaNodes[20].**.initialX "300m + uniform(-10m, 10m)"
config **.loRaNodes[20].**.initialY "490m + uniform(-8m, 8m)"
config **.loRaNodes[21].**.initialX "450m + uniform(-10m, 10m)"
config **.loRaNodes[21].**.initialY "490m + uniform(-8m, 8m)"
config **.loRaNodes[22].**.initialX "600m + uniform(-10m, 10m)"
config **.loRaNodes[22].**.initialY "490m + uniform(-8m, 8m)"
config **.loRaNodes[23].**.initialX "750m + uniform(-10m, 10m)"
config **.loRaNodes[23].**.initialY "490m + uniform(-8m, 8m)"
config **.loRaNodes[24].**.initialX "900m + uniform(-10m, 10m)"
config **.loRaNodes[24].**.initialY "490m + uniform(-8m, 8m)"
config **.loRaNodes[25].**.initialX "1050m + uniform(-10m, 10m)"
config **.loRaNodes[25].**.initialY "490m + uniform(-8m, 8m)"
config **.loRaNodes[26].**.initialX "1200m + uniform(-10m, 10m)"
config **.loRaNodes[26].**.initialY "490m + uniform(-8m, 8m)"
config **.loRaNodes[27].**.initialX "1350m + uniform(-10m, 10m)"
config **.loRaNodes[27].**.initialY "490m + uniform(-8m, 8m)"
config **.loRaNodes[28].**.initialX "1500m + uniform(-10m, 10m)"
config **.loRaNodes[28].**.initialY "490m + uniform(-8m, 8m)"
config **.loRaNodes[29].**.initialX "1650m + uniform(-10m, 10m)"
config **.loRaNodes[29].**.initialY "490m + uniform(-8m, 8m)"
config **.loRaNodes[30].**.initialX "300m + uniform(-10m, 10m)"
config **.loRaNodes[30].**.initialY "610m + uniform(-8m, 8m)"
config **.loRaNodes[31].**.initialX "450m + uniform(-10m, 10m)"
config **.loRaNodes[31].**.initialY "610m + uniform(-8m, 8m)"
config **.loRaNodes[32].**.initialX "600m + uniform(-10m, 10m)"
config **.loRaNodes[32].**.initialY "610m + uniform(-8m, 8m)"
config **.loRaNodes[33].**.initialX "750m + uniform(-10m, 10m)"
config **.loRaNodes[33].**.initialY "610m + uniform(-8m, 8m)"
config **.loRaNodes[34].**.initialX "900m + uniform(-10m, 10m)"
config **.loRaNodes[34].**.initialY "610m + uniform(-8m, 8m)"
config **.loRaNodes[35].**.initialX "1050m + uniform(-10m, 10m)"
config **.loRaNodes[35].**.initialY "610m + uniform(-8m, 8m)"
config **.loRaNodes[36].**.initialX "1200m + uniform(-10m, 10m)"
config **.loRaNodes[36].**.initialY "610m + uniform(-8m, 8m)"
config **.loRaNodes[37].**.initialX "1350m + uniform(-10m, 10m)"
config **.loRaNodes[37].**.initialY "610m + uniform(-8m, 8m)"
config **.loRaNodes[38].**.initialX "1500m + uniform(-10m, 10m)"
config **.loRaNodes[38].**.initialY "610m + uniform(-8m, 8m)"
config **.loRaNodes[39].**.initialX "1650m + uniform(-10m, 10m)"
config **.loRaNodes[39].**.initialY "610m + uniform(-8m, 8m)"
config **.loRaNodes[40].**.initialX "300m + uniform(-10m, 10m)"
config **.loRaNodes[40].**.initialY "730m + uniform(-8m, 8m)"
config **.loRaNodes[41].**.initialX "450m + uniform(-10m, 10m)"
config **.loRaNodes[41].**.initialY "730m + uniform(-8m, 8m)"
config **.loRaNodes[42].**.initialX "600m + uniform(-10m, 10m)"
config **.loRaNodes[42].**.initialY "730m + uniform(-8m, 8m)"
config **.loRaNodes[43].**.initialX "750m + uniform(-10m, 10m)"
config **.loRaNodes[43].**.initialY "730m + uniform(-8m, 8m)"
config **.loRaNodes[44].**.initialX "900m + uniform(-10m, 10m)"
config **.loRaNodes[44].**.initialY "730m + uniform(-8m, 8m)"
config **.loRaNodes[45].**.initialX "1050m + uniform(-10m, 10m)"
config **.loRaNodes[45].**.initialY "730m + uniform(-8m, 8m)"
config **.loRaNodes[46].**.initialX "1200m + uniform(-10m, 10m)"
config **.loRaNodes[46].**.initialY "730m + uniform(-8m, 8m)"
config **.loRaNodes[47].**.initialX "1350m + uniform(-10m, 10m)"
config **.loRaNodes[47].**.initialY "730m + uniform(-8m, 8m)"
config **.loRaNodes[48].**.initialX "1500m + uniform(-10m, 10m)"
config **.loRaNodes[48].**.initialY "730m + uniform(-8m, 8m)"
config **.loRaNodes[49].**.initialX "1650m + uniform(-10m, 10m)"
config **.loRaNodes[49].**.initialY "730m + uniform(-8m, 8m)"
config **.loRaNodes[50].**.initialX "300m + uniform(-10m, 10m)"
config **.loRaNodes[50].**.initialY "850m + uniform(-8m, 8m)"
config **.loRaNodes[51].**.initialX "450m + uniform(-10m, 10m)"
config **.loRaNodes[51].**.initialY "850m + uniform(-8m, 8m)"
config **.loRaNodes[52].**.initialX "600m + uniform(-10m, 10m)"
config **.loRaNodes[52].**.initialY "850m + uniform(-8m, 8m)"
config **.loRaNodes[53].**.initialX "750m + uniform(-10m, 10m)"
config **.loRaNodes[53].**.initialY "850m + uniform(-8m, 8m)"
config **.loRaNodes[54].**.initialX "900m + uniform(-10m, 10m)"
config **.loRaNodes[54].**.initialY "850m + uniform(-8m, 8m)"
config **.loRaNodes[55].**.initialX "1050m + uniform(-10m, 10m)"
config **.loRaNodes[55].**.initialY "850m + uniform(-8m, 8m)"
config **.loRaNodes[56].**.initialX "1200m + uniform(-10m, 10m)"
config **.loRaNodes[56].**.initialY "850m + uniform(-8m, 8m)"
config **.loRaNodes[57].**.initialX "1350m + uniform(-10m, 10m)"
config **.loRaNodes[57].**.initialY "850m + uniform(-8m, 8m)"
config **.loRaNodes[58].**.initialX "1500m + uniform(-10m, 10m)"
config **.loRaNodes[58].**.initialY "850m + uniform(-8m, 8m)"
config **.loRaNodes[59].**.initialX "1650m + uniform(-10m, 10m)"
config **.loRaNodes[59].**.initialY "850m + uniform(-8m, 8m)"
config **.loRaNodes[60].**.initialX "300m + uniform(-10m, 10m)"
config **.loRaNodes[60].**.initialY "970m + uniform(-8m, 8m)"
config **.loRaNodes[61].**.initialX "450m + uniform(-10m, 10m)"
config **.loRaNodes[61].**.initialY "970m + uniform(-8m, 8m)"
config **.loRaNodes[62].**.initialX "600m + uniform(-10m, 10m)"
config **.loRaNodes[62].**.initialY "970m + uniform(-8m, 8m)"
config **.loRaNodes[63].**.initialX "750m + uniform(-10m, 10m)"
config **.loRaNodes[63].**.initialY "970m + uniform(-8m, 8m)"
config **.loRaNodes[64].**.initialX "900m + uniform(-10m, 10m)"
config **.loRaNodes[64].**.initialY "970m + uniform(-8m, 8m)"
config **.loRaNodes[65].**.initialX "1050m + uniform(-10m, 10m)"
config **.loRaNodes[65].**.initialY "970m + uniform(-8m, 8m)"
config **.loRaNodes[66].**.initialX "1200m + uniform(-10m, 10m)"
config **.loRaNodes[66].**.initialY "970m + uniform(-8m, 8m)"
config **.loRaNodes[67].**.initialX "1350m + uniform(-10m, 10m)"
config **.loRaNodes[67].**.initialY "970m + uniform(-8m, 8m)"
config **.loRaNodes[68].**.initialX "1500m + uniform(-10m, 10m)"
config **.loRaNodes[68].**.initialY "970m + uniform(-8m, 8m)"
config **.loRaNodes[69].**.initialX "1650m + uniform(-10m, 10m)"
config **.loRaNodes[69].**.initialY "970m + uniform(-8m, 8m)"
config **.loRaNodes[70].**.initialX "300m + uniform(-10m, 10m)"
config **.loRaNodes[70].**.initialY "1090m + uniform(-8m, 8m)"
config **.loRaNodes[71].**.initialX "450m + uniform(-10m, 10m)"
config **.loRaNodes[71].**.initialY "1090m + uniform(-8m, 8m)"
config **.loRaNodes[72].**.initialX "600m + uniform(-10m, 10m)"
config **.loRaNodes[72].**.initialY "1090m + uniform(-8m, 8m)"
config **.loRaNodes[73].**.initialX "750m + uniform(-10m, 10m)"
config **.loRaNodes[73].**.initialY "1090m + uniform(-8m, 8m)"
config **.loRaNodes[74].**.initialX "900m + uniform(-10m, 10m)"
config **.loRaNodes[74].**.initialY "1090m + uniform(-8m, 8m)"
config **.HospitalServer.numApps 1
config **.HospitalServer.app[0].typename HospitalServerApp
config **.HospitalServer.app[0].destPort 2000
config **.HospitalServer.app[0].localPort 1000
config **.HospitalServer.app[0].adrMethod "\"avg\""
config **.HospitalServer.**.evaluateADRinServer true
config **.HospitalServer.app[0].queueSize 50
config **.HospitalServer.app[0].expo_rate_lambda 0.83
config **.loRaGateway.numUdpApps 1
config **.loRaGateway.packetForwarder.localPort 2000
config **.loRaGateway.packetForwarder.destPort 1000
config **.loRaGateway.packetForwarder.destAddresses "\"HospitalServer\""
config **.loRaGateway.**.initFromDisplayString false
config **.loRaGateway.**.initialX 544.00m
config **.loRaGateway.**.initialY 544.00m
config **.loRaNodes[*].numApps 1
config **.loRaNodes[*].app[0].typename PatientSensorApp
config **.loRaNodes[*].app[0].expo_rate_lambda 0.00175
config **.loRaNodes[*].app[0].emergencyThreshold 50
config **.loRaNodes[*].**.timeToFirstPacket exponential(24s)
config **.loRaNodes[*].**.timeToNextPacket exponential(24s)
config **.loRaNodes[*].**.numberOfPacketsToSend 0
config **.loRaNodes[*].**initialLoRaSF 12
config **.loRaNodes[*].**initialLoRaTP 14dBm
config **.loRaNodes[*].**initialLoRaBW "125 kHz"
config **.loRaNodes[*].**initialLoRaCR 4
config **.loRaNodes[*].**.initFromDisplayString false
config **.loRaNodes[*].**.evaluateADRinNode true
config **.loRaNodes[*].LoRaNic.radio.energyConsumer.typename LoRaEnergyConsumer
config **.loRaNodes[*].**.energySourceModule "\"^.IdealEpEnergyStorage\""
config **.loRaNodes[*].LoRaNic.radio.energyConsumer.configFile "xmldoc(\"energyConsumptionParam.xml\")"
config **.maxTransmissionDuration 4s
config **.energyDetection -110dBm
config **.radio.radioMediumModule "\"LoRaMedium\""
config **.minInterferenceTime 0s
config **.constraintAreaMinX 0m
config **.constraintAreaMinY 0m
config **.constraintAreaMinZ 0m
config **.constraintAreaMaxZ 0m
config **.constraintAreaMaxX 3000.0m
config **.constraintAreaMaxY 3000.0m

vector 0 LoRaNetworkTest.HospitalServer.app[0] queueLength:vector ETV
attr recordingmode vector
attr title "Total queue length"
vector 1 LoRaNetworkTest.HospitalServer.app[0] normalWaitTime:vector ETV
attr recordingmode vector
attr title "Normal wait time (s)"
vector 2 LoRaNetworkTest.HospitalServer.app[0] normalEndToEndDelay:vector ETV
attr recordingmode vector
attr title "Normal end-to-end delay (s)"
vector 3 LoRaNetworkTest.loRaNodes[33].app[0] emergencyVariate:vector ETV
attr recordingmode vector
attr title "Exponential variate samples"
vector 4 LoRaNetworkTest.loRaNodes[24].app[0] emergencyVariate:vector ETV
attr recordingmode vector
attr title "Exponential variate samples"
vector 5 LoRaNetworkTest.loRaNodes[39].app[0] emergencyVariate:vector ETV
attr recordingmode vector
attr title "Exponential variate samples"
vector 6 LoRaNetworkTest.loRaNodes[11].app[0] emergencyVariate:vector ETV
attr recordingmode vector
attr title "Exponential variate samples"
vector 7 LoRaNetworkTest.loRaNodes[42].app[0] emergencyVariate:vector ETV
attr recordingmode vector
attr title "Exponential variate samples"
vector 8 LoRaNetworkTest.loRaNodes[29].app[0] emergencyVariate:vector ETV
attr recordingmode vector
attr title "Exponential variate samples"
vector 9 LoRaNetworkTest.HospitalServer.app[0] urgentWaitTime:vector ETV
attr recordingmode vector
attr title "Urgent wait time (s)"
vector 10 LoRaNetworkTest.HospitalServer.app[0] urgentEndToEndDelay:vector ETV
attr recordingmode vector
attr title "Urgent end-to-end delay (s)"
vector 11 LoRaNetworkTest.loRaNodes[46].app[0] emergencyVariate:vector ETV
attr recordingmode vector
attr title "Exponential variate samples"
vector 12 LoRaNetworkTest.loRaNodes[20].app[0] emergencyVariate:vector ETV
attr recordingmode vector
attr title "Exponential variate samples"
vector 13 LoRaNetworkTest.loRaNodes[40].app[0] emergencyVariate:vector ETV
attr recordingmode vector
attr title "Exponential variate samples"
vector 14 LoRaNetworkTest.loRaNodes[4].app[0] emergencyVariate:vector ETV
attr recordingmode vector
attr title "Exponential variate samples"
vector 15 LoRaNetworkTest.loRaNodes[34].app[0] emergencyVariate:vector ETV
attr recordingmode vector
attr title "Exponential variate samples"
vector 16 LoRaNetworkTest.loRaNodes[27].app[0] emergencyVariate:vector ETV
attr recordingmode vector
attr title "Exponential variate samples"
vector 17 LoRaNetworkTest.loRaNodes[0].app[0] emergencyVariate:vector ETV
attr recordingmode vector
attr title "Exponential variate samples"
vector 18 LoRaNetworkTest.loRaNodes[30].app[0] emergencyVariate:vector ETV
attr recordingmode vector
attr title "Exponential variate samples"
vector 19 LoRaNetworkTest.loRaNodes[26].app[0] emergencyVariate:vector ETV
attr recordingmode vector
attr title "Exponential variate samples"
vector 20 LoRaNetworkTest.loRaNodes[8].app[0] emergencyVariate:vector ETV
attr recordingmode vector
attr title "Exponential variate samples"
vector 21 LoRaNetworkTest.loRaNodes[48].app[0] emergencyVariate:vector ETV
attr recordingmode vector
attr title "Exponential variate samples"
vector 22 LoRaNetworkTest.loRaNodes[43].app[0] emergencyVariate:vector ETV
attr recordingmode vector
attr title "Exponential variate samples"
vector 23 LoRaNetworkTest.loRaNodes[37].app[0] emergencyVariate:vector ETV
attr recordingmode vector
attr title "Exponential variate samples"
vector 24 LoRaNetworkTest.loRaNodes[6].app[0] emergencyVariate:vector ETV
attr recordingmode vector
attr title "Exponential variate samples"
vector 25 LoRaNetworkTest.loRaNodes[3].app[0] emergencyVariate:vector ETV
attr recordingmode vector
attr title "Exponential variate samples"
vector 26 LoRaNetworkTest.loRaNodes[32].app[0] emergencyVariate:vector ETV
attr recordingmode vector
attr title "Exponential variate samples"
vector 27 LoRaNetworkTest.loRaNodes[41].app[0] emergencyVariate:vector ETV
attr recordingmode vector
attr title "Exponential variate samples"
vector 28 LoRaNetworkTest.loRaNodes[47].app[0] emergencyVariate:vector ETV
attr recordingmode vector
attr title "Exponential variate samples"
vector 29 LoRaNetworkTest.loRaNodes[15].app[0] emergencyVariate:vector ETV
attr recordingmode vector
attr title "Exponential variate samples"
vector 30 LoRaNetworkTest.loRaNodes[19].app[0] emergencyVariate:vector ETV
attr recordingmode vector
attr title "Exponential variate samples"
vector 31 LoRaNetworkTest.loRaNodes[10].app[0] emergencyVariate:vector ETV
attr recordingmode vector
attr title "Exponential variate samples"
vector 32 LoRaNetworkTest.loRaNodes[7].app[0] emergencyVariate:vector ETV
attr recordingmode vector
attr title "Exponential variate samples"
vector 33 LoRaNetworkTest.loRaNodes[14].app[0] emergencyVariate:vector ETV
attr recordingmode vector
attr title "Exponential variate samples"
vector 34 LoRaNetworkTest.loRaNodes[13].app[0] emergencyVariate:vector ETV
attr recordingmode vector
attr title "Exponential variate samples"
vector 35 LoRaNetworkTest.loRaNodes[12].app[0] emergencyVariate:vector ETV
attr recordingmode vector
attr title "Exponential variate samples"
vector 36 LoRaNetworkTest.loRaNodes[21].app[0] emergencyVariate:vector ETV
attr recordingmode vector
attr title "Exponential variate samples"
vector 37 LoRaNetworkTest.loRaNodes[22].app[0] emergencyVariate:vector ETV
attr recordingmode vector
attr title "Exponential variate samples"
vector 38 LoRaNetworkTest.loRaNodes[5].app[0] emergencyVariate:vector ETV
attr recordingmode vector
attr title "Exponential variate samples"
vector 39 LoRaNetworkTest.loRaNodes[18].app[0] emergencyVariate:vector ETV
attr recordingmode vector
attr title "Exponential variate samples"
vector 40 LoRaNetworkTest.loRaNodes[38].app[0] emergencyVariate:vector ETV
attr recordingmode vector
attr title "Exponential variate samples"
vector 41 LoRaNetworkTest.loRaNodes[2].app[0] emergencyVariate:vector ETV
attr recordingmode vector
attr title "Exponential variate samples"
vector 42 LoRaNetworkTest.loRaNodes[28].app[0] emergencyVariate:vector ETV
attr recordingmode vector
attr title "Exponential variate samples"
vector 43 LoRaNetworkTest.loRaNodes[17].app[0] emergencyVariate:vector ETV
attr recordingmode vector
attr title "Exponential variate samples"
vector 44 LoRaNetworkTest.loRaNodes[35].app[0] emergencyVariate:vector ETV
attr recordingmode vector
attr title "Exponential variate samples"
vector 45 LoRaNetworkTest.loRaNodes[25].app[0] emergencyVariate:vector ETV
attr recordingmode vector
attr title "Exponential variate samples"
vector 46 LoRaNetworkTest.loRaNodes[31].app[0] emergencyVariate:vector ETV
attr recordingmode vector
attr title "Exponential variate samples"
vector 47 LoRaNetworkTest.loRaNodes[36].app[0] emergencyVariate:vector ETV
attr recordingmode vector
attr title "Exponential variate samples"
vector 48 LoRaNetworkTest.loRaNodes[16].app[0] emergencyVariate:vector ETV
attr recordingmode vector
attr title "Exponential variate samples"
vector 49 LoRaNetworkTest.loRaNodes[44].app[0] emergencyVariate:vector ETV
attr recordingmode vector
attr title "Exponential variate samples"
vector 50 LoRaNetworkTest.loRaNodes[1].app[0] emergencyVariate:vector ETV
attr recordingmode vector
attr title "Exponential variate samples"
vector 51 LoRaNetworkTest.loRaNodes[49].app[0] emergencyVariate:vector ETV
attr recordingmode vector
attr title "Exponential variate samples"
vector 52 LoRaNetworkTest.loRaNodes[9].app[0] emergencyVariate:vector ETV
attr recordingmode vector
attr title "Exponential variate samples"
vector 53 LoRaNetworkTest.loRaNodes[45].app[0] emergencyVariate:vector ETV
attr recordingmode vector
attr title "Exponential variate samples"
vector 54 LoRaNetworkTest.loRaNodes[23].app[0] emergencyVariate:vector ETV
attr recordingmode vector
attr title "Exponential variate samples"
0	5381	60.48076892174	1
0	5381	60.48076892174	0
0	5579	74.82385924659	1
0	5579	74.82385924659	0
0	5915	183.46550405582	1
0	5915	183.46550405582	0
0	6076	185.54093286333	1
0	6076	185.54093286333	0
0	6570	189.02230241098	1
0	6570	189.02230241098	0
0	6780	190.67532408422	1
0	6780	190.67532408422	0
0	7122	195.92597392609	1
0	7122	195.92597392609	0
0	7587	199.44756097938	1
0	7587	199.44756097938	0
0	7897	206.45071323001	1
0	7897	206.45071323001	0
0	8020	211.92785119047	1
0	8020	211.92785119047	0
0	8251	214.0150943226	1
0	8251	214.0150943226	0
0	8642	216.42345766537	1
0	8642	216.42345766537	0
0	9050	219.22842415233	1
0	9050	219.22842415233	0
0	9188	221.49707127496	1
0	9188	221.49707127496	0
0	9330	224.95621111943	1
0	9330	224.95621111943	0
0	9788	234.51665008375	1
0	9788	234.51665008375	0
0	10105	250.26359103868	1
0	10105	250.26359103868	0
0	10286	252.58546721828	1
0	10286	252.58546721828	0
0	10463	256.53100960221	1
0	10463	256.53100960221	0
0	10639	263.61126360336	1
0	10639	263.61126360336	0
0	11114	270.18805294955	1
0	11114	270.18805294955	0
0	11288	285.88293001303	1
0	11288	285.88293001303	0
0	11742	349.61783096744	1
0	11742	349.61783096744	0
0	11847	361.65124271709	1
0	11847	361.65124271709	0
0	11982	367.26414561867	1
0	11982	367.26414561867	0
0	12220	372.08669282833	1
0	12220	372.08669282833	0
0	12453	375.56670758218	1
0	12453	375.56670758218	0
0	12811	384.20956838586	1
0	12811	384.20956838586	0
0	13126	388.23987856424	1
0	13126	388.23987856424	0
0	13940	396.8830702231	1
0	13940	396.8830702231	0
0	14859	406.72537625483	1
0	14859	406.72537625483	0
0	15098	411.70974135118	1
0	15098	411.70974135118	0
0	15435	421.88600088797	1
0	15435	421.88600088797	0
0	15592	425.01908890171	1
0	15715	427.0022904008	2
0	15728	427.40972909536	1
0	15729	427.65011274451	0
0	15850	436.79347945409	1
0	15850	436.79347945409	0
0	16420	450.90368079543	1
0	16420	450.90368079543	0
0	16656	452.73786045402	1
0	16656	452.73786045402	0
0	16885	462.83164324103	1
0	16885	462.83164324103	0
0	17283	482.40917433005	1
0	17283	482.40917433005	0
0	17415	484.61777881639	1
0	17415	484.61777881639	0
0	17538	529.51824863557	1
0	17538	529.51824863557	0
0	17822	554.60113028876	1
0	17822	554.60113028876	0
0	18003	557.68149887845	1
0	18003	557.68149887845	0
0	18191	563.78527077005	1
0	18191	563.78527077005	0
0	18651	570.25195362043	1
0	18651	570.25195362043	0
0	19086	582.37241323872	1
0	19086	582.37241323872	0
0	19243	585.8903543822	1
0	19243	585.8903543822	0
0	19509	591.8985915966	1
0	19509	591.8985915966	0
0	19668	594.2209277079	1
0	19691	594.69177814991	0
0	19983	597.70376254245	1
0	19983	597.70376254245	0
0	20277	600.89894260764	1
0	20277	600.89894260764	0
0	20666	616.06983879682	1
0	20666	616.06983879682	0
0	21435	634.15397824723	1
0	21435	634.15397824723	0
0	21564	636.54325153097	1
0	21564	636.54325153097	0
0	21709	645.15215408343	1
0	21709	645.15215408343	0
0	21874	647.03787207662	1
0	22079	649.02609260583	2
0	22089	650.62620066965	1
0	22090	650.7777864256	0
0	22249	657.25979391648	1
0	22249	657.25979391648	0
0	22455	660.37768242832	1
0	22455	660.37768242832	0
0	22888	666.11778853492	1
0	22888	666.11778853492	0
0	23148	685.72724608292	1
0	23148	685.72724608292	0
0	23295	700.83740602536	1
0	23295	700.83740602536	0
0	23418	733.86546051676	1
0	23418	733.86546051676	0
0	23586	739.34281910109	1
0	23586	739.34281910109	0
0	23696	746.63938410296	1
0	23696	746.63938410296	0
0	24034	749.58862740398	1
0	24034	749.58862740398	0
0	24279	753.9285695163	1
0	24279	753.9285695163	0
0	24738	760.89564146181	1
0	24738	760.89564146181	0
0	25164	772.3325270494	1
0	25164	772.3325270494	0
0	25572	783.82000906369	1
0	25572	783.82000906369	0
0	25805	790.14114642523	1
0	25805	790.14114642523	0
0	26373	809.54927865565	1
0	26373	809.54927865565	0
0	26768	819.2046965204	1
0	26768	819.2046965204	0
0	27159	825.76607874173	1
0	27159	825.76607874173	0
0	27355	831.85375774409	1
0	27355	831.85375774409	0
0	27601	835.22377207623	1
0	27601	835.22377207623	0
0	27898	842.60105859513	1
0	27898	842.60105859513	0
0	28401	872.43018670452	1
0	28401	872.43018670452	0
0	28694	903.27238772021	1
0	28694	903.27238772021	0
0	28954	906.78838478909	1
0	29044	908.65324345495	0
0	29101	909.53665903449	1
0	29177	910.95834458101	0
0	29224	911.74915641874	1
0	29257	914.0535492677	0
0	29362	916.31344169139	1
0	29385	916.85848442948	0
0	29652	923.38974412928	1
0	29652	923.38974412928	0
0	29832	925.6566334743	1
0	29832	925.6566334743	0
0	30240	944.07075441861	1
0	30240	944.07075441861	0
0	30594	948.8408153154	1
0	30594	948.8408153154	0
0	30997	956.88067665006	1
0	30997	956.88067665006	0
0	31357	976.18391907371	1
0	31357	976.18391907371	0
0	31495	983.2456422815	1
0	31495	983.2456422815	0
0	31824	993.56102761301	1
0	31824	993.56102761301	0
0	32176	1005.77879405187	1
0	32176	1005.77879405187	0
0	32393	1011.07228695732	1
0	32393	1011.07228695732	0
0	32689	1016.07748258193	1
0	32689	1016.07748258193	0
0	32987	1024.78638730082	1
0	32987	1024.78638730082	0
0	33290	1029.50873516234	1
0	33290	1029.50873516234	0
0	33726	1037.35268838045	1
0	33726	1037.35268838045	0
0	34112	1050.11786403847	1
0	34112	1050.11786403847	0
0	34220	1070.65289983343	1
0	34220	1070.65289983343	0
0	34512	1089.42155611777	1
0	34512	1089.42155611777	0
0	34916	1096.43684885379	1
0	34916	1096.43684885379	0
0	35251	1099.58590469496	1
0	35251	1099.58590469496	0
0	35410	1101.69299350469	1
0	35483	1103.75447252732	0
0	35638	1106.8460960728	1
0	35638	1106.8460960728	0
0	35826	1114.30588679475	1
0	35826	1114.30588679475	0
0	35956	1121.90827858536	1
0	35956	1121.90827858536	0
0	36176	1136.51694759601	1
0	36176	1136.51694759601	0
0	36418	1147.87391332648	1
0	36418	1147.87391332648	0
0	36566	1149.93682708597	1
0	36566	1149.93682708597	0
0	36899	1163.83146697943	1
0	36899	1163.83146697943	0
0	37257	1172.90379175829	1
0	37257	1172.90379175829	0
0	37485	1180.56974223047	1
0	37485	1180.56974223047	0
0	37946	1202.00688090816	1
0	37946	1202.00688090816	0
0	38073	1207.87886825701	1
0	38073	1207.87886825701	0
0	38379	1211.35618145486	1
0	38379	1211.35618145486	0
0	38712	1215.61804630751	1
0	38712	1215.61804630751	0
0	39459	1228.42742378305	1
0	39459	1228.42742378305	0
0	39685	1236.10397501623	1
0	39685	1236.10397501623	0
0	40183	1277.38597643092	1
0	40183	1277.38597643092	0
0	40314	1285.87166019793	1
0	40314	1285.87166019793	0
0	40435	1290.20513675758	1
0	40435	1290.20513675758	0
0	41112	1310.76959495494	1
0	41112	1310.76959495494	0
0	41373	1316.84962687313	1
0	41373	1316.84962687313	0
0	41487	1319.48033079401	1
0	41487	1319.48033079401	0
0	41641	1324.26660790097	1
0	41641	1324.26660790097	0
0	41806	1332.80189931086	1
0	41806	1332.80189931086	0
0	42150	1344.78496452788	1
0	42150	1344.78496452788	0
0	42828	1361.17072186727	1
0	42828	1361.17072186727	0
0	43210	1373.04920117356	1
0	43210	1373.04920117356	0
0	43631	1378.38228238766	1
0	43631	1378.38228238766	0
0	43740	1382.19447575484	1
0	43740	1382.19447575484	0
0	44086	1388.25763087532	1
0	44086	1388.25763087532	0
0	44435	1407.79964575635	1
0	44435	1407.79964575635	0
0	44676	1414.57560388015	1
0	44676	1414.57560388015	0
0	45435	1436.73520615365	1
0	45435	1436.73520615365	0
0	45600	1452.69965562992	1
0	45600	1452.69965562992	0
0	45845	1460.96701807338	1
0	45845	1460.96701807338	0
0	45970	1470.069223648	1
0	45970	1470.069223648	0
0	46101	1476.38857242258	1
0	46101	1476.38857242258	0
0	46505	1487.52891888079	1
0	46505	1487.52891888079	0
0	46611	1494.62822734518	1
0	46611	1494.62822734518	0
0	46970	1503.27486994914	1
0	46970	1503.27486994914	0
0	47328	1508.38326633783	1
0	47328	1508.38326633783	0
0	47875	1523.61596530163	1
0	47875	1523.61596530163	0
0	48013	1529.56536129822	1
0	48013	1529.56536129822	0
0	48166	1542.55815914459	1
0	48166	1542.55815914459	0
0	48325	1544.42847899977	1
0	48325	1544.42847899977	0
0	48514	1547.74887448914	1
0	48514	1547.74887448914	0
0	48660	1556.49167235163	1
0	48660	1556.49167235163	0
0	48776	1558.36860031375	1
0	48776	1558.36860031375	0
0	49013	1562.73033053212	1
0	49013	1562.73033053212	0
0	49261	1570.4714345621	1
0	49261	1570.4714345621	0
0	49516	1573.81261321527	1
0	49516	1573.81261321527	0
0	49944	1585.54596268835	1
0	49944	1585.54596268835	0
0	50211	1588.54672281366	1
0	50211	1588.54672281366	0
0	50705	1609.7174677295	1
0	50705	1609.7174677295	0
0	50840	1620.4055741044	1
0	50840	1620.4055741044	0
0	51161	1632.64531044867	1
0	51161	1632.64531044867	0
0	51301	1634.63708291203	1
0	51301	1634.63708291203	0
0	51450	1637.67720162377	1
0	51450	1637.67720162377	0
0	51770	1643.1370586804	1
0	51770	1643.1370586804	0
0	51918	1645.79968682927	1
0	51918	1645.79968682927	0
0	52038	1657.35362797775	1
0	52038	1657.35362797775	0
0	52192	1660.4994646758	1
0	52192	1660.4994646758	0
0	52325	1665.0168928368	1
0	52325	1665.0168928368	0
0	52910	1690.01722709809	1
0	52910	1690.01722709809	0
0	53116	1693.17885549929	1
0	53116	1693.17885549929	0
0	53350	1697.90580811702	1
0	53350	1697.90580811702	0
0	53803	1724.05643965703	1
0	53803	1724.05643965703	0
0	53987	1725.78220356558	1
0	53987	1725.78220356558	0
0	54340	1733.46013133633	1
0	54340	1733.46013133633	0
0	54446	1736.17253189397	1
0	54446	1736.17253189397	0
0	54697	1738.75158886522	1
0	54697	1738.75158886522	0
0	54931	1747.42968364482	1
0	54931	1747.42968364482	0
0	55077	1750.83199479723	1
0	55077	1750.83199479723	0
0	55436	1760.93299539607	1
0	55436	1760.93299539607	0
0	55671	1766.13011884118	1
0	55675	1766.40398952726	0
0	56108	1777.32693780724	1
0	56108	1777.32693780724	0
0	56239	1779.04473258308	1
0	56239	1779.04473258308	0
0	56399	1784.2223247351	1
0	56399	1784.2223247351	0
0	56723	1797.59711263958	1
0	56723	1797.59711263958	0
0	56984	1808.09658688696	1
0	56984	1808.09658688696	0
0	57312	1824.81630698453	1
0	57312	1824.81630698453	0
0	57458	1829.04581680894	1
0	57458	1829.04581680894	0
0	57623	1831.03193664347	1
0	57623	1831.03193664347	0
0	57924	1842.27275764919	1
0	57924	1842.27275764919	0
0	58189	1853.2279430371	1
0	58189	1853.2279430371	0
0	58566	1870.52932422288	1
0	58566	1870.52932422288	0
0	58772	1872.59576660262	1
0	58772	1872.59576660262	0
0	59459	1899.37314890785	1
0	59459	1899.37314890785	0
0	59615	1905.87535278524	1
0	59615	1905.87535278524	0
0	59723	1909.23240876392	1
0	59749	1910.40069939968	0
0	59964	1920.68523781386	1
0	59964	1920.68523781386	0
0	60272	1932.3157956211	1
0	60272	1932.3157956211	0
0	60552	1939.57793152383	1
0	60552	1939.57793152383	0
0	60907	1948.31891974348	1
0	60907	1948.31891974348	0
0	61154	1950.34444777006	1
0	61154	1950.34444777006	0
0	61489	1959.91893633533	1
0	61489	1959.91893633533	0
0	61621	1963.80109099738	1
0	61621	1963.80109099738	0
0	62072	1977.625841394	1
0	62072	1977.625841394	0
0	62315	1980.39975583442	1
0	62315	1980.39975583442	0
0	62724	1996.28540282252	1
0	62724	1996.28540282252	0
0	62844	2003.26642499906	1
0	62844	2003.26642499906	0
0	63174	2012.08817255418	1
0	63174	2012.08817255418	0
0	63333	2015.38510129388	1
0	63333	2015.38510129388	0
0	63596	2018.47919783287	1
0	63596	2018.47919783287	0
0	64007	2041.0839772396	1
0	64007	2041.0839772396	0
0	64162	2043.76097869393	1
0	64162	2043.76097869393	0
0	64281	2046.14403462131	1
0	64281	2046.14403462131	0
0	64400	2049.62054530347	1
0	64400	2049.62054530347	0
0	64543	2055.82596820232	1
0	64543	2055.82596820232	0
0	65237	2085.87050657311	1
0	65237	2085.87050657311	0
0	65456	2098.07693263214	1
0	65456	2098.07693263214	0
0	65825	2110.19254073149	1
0	65825	2110.19254073149	0
0	66041	2116.37419575349	1
0	66041	2116.37419575349	0
0	66201	2119.37244808149	1
0	66201	2119.37244808149	0
0	66607	2129.44816293872	1
0	66607	2129.44816293872	0
0	66803	2131.97498807711	1
0	66803	2131.97498807711	0
0	67029	2134.5301179254	1
0	67029	2134.5301179254	0
0	67290	2136.81070965866	1
0	67290	2136.81070965866	0
0	67430	2139.70610157423	1
0	67430	2139.70610157423	0
0	67649	2153.53881904109	1
0	67649	2153.53881904109	0
0	68110	2166.63398506654	1
0	68110	2166.63398506654	0
0	68262	2169.44098375289	1
0	68262	2169.44098375289	0
0	68385	2183.33797429049	1
0	68385	2183.33797429049	0
0	68774	2194.73607513909	1
0	68774	2194.73607513909	0
0	68955	2197.71410185793	1
0	68955	2197.71410185793	0
0	69199	2202.27571198372	1
0	69199	2202.27571198372	0
0	69604	2225.22741577805	1
0	69604	2225.22741577805	0
0	70005	2237.98805566159	1
0	70005	2237.98805566159	0
0	70677	2248.70590863487	1
0	70677	2248.70590863487	0
0	71071	2269.29813073016	1
0	71071	2269.29813073016	0
0	71223	2274.1015081295	1
0	71223	2274.1015081295	0
0	71442	2288.70891550157	1
0	71442	2288.70891550157	0
0	71571	2290.85618610251	1
0	71571	2290.85618610251	0
0	71710	2292.63528188393	1
0	71779	2294.13097560142	0
0	71838	2294.38665452852	1
0	71908	2294.85885998054	0
0	72145	2297.49458266554	1
0	72145	2297.49458266554	0
0	72642	2326.27053372555	1
0	72642	2326.27053372555	0
0	72799	2331.84657864756	1
0	72799	2331.84657864756	0
0	73125	2340.31024395839	1
0	73125	2340.31024395839	0
0	73389	2348.02912758023	1
0	73389	2348.02912758023	0
0	73501	2353.47270037036	1
0	73501	2353.47270037036	0
0	73734	2361.48015753509	1
0	73734	2361.48015753509	0
0	74267	2369.75594690294	1
0	74267	2369.75594690294	0
0	74467	2375.38601291024	1
0	74467	2375.38601291024	0
0	74753	2379.67003392769	1
0	74753	2379.67003392769	0
0	75172	2395.07402841705	1
0	75172	2395.07402841705	0
0	75513	2407.6674810844	1
0	75513	2407.6674810844	0
0	75967	2425.933971743	1
0	75967	2425.933971743	0
0	76329	2445.83262772913	1
0	76329	2445.83262772913	0
0	76906	2474.00843125551	1
0	76906	2474.00843125551	0
0	77043	2477.18041215819	1
0	77043	2477.18041215819	0
0	77365	2482.87405373853	1
0	77365	2482.87405373853	0
0	77535	2492.63611042958	1
0	77535	2492.63611042958	0
0	77791	2503.17382871947	1
0	77791	2503.17382871947	0
0	77927	2508.9683136664	1
0	77927	2508.9683136664	0
0	78038	2513.25828355104	1
0	78038	2513.25828355104	0
0	78269	2515.05793621317	1
0	78269	2515.05793621317	0
0	78509	2519.1285657355	1
0	78509	2519.1285657355	0
0	78711	2522.04234933363	1
0	78779	2523.83613767812	0
0	78994	2528.56861005297	1
0	78994	2528.56861005297	0
0	79138	2535.47008445404	1
0	79138	2535.47008445404	0
0	79282	2539.88389031423	1
0	79282	2539.88389031423	0
0	79408	2541.72365334682	1
0	79413	2542.90311911837	0
0	79519	2547.11932697713	1
0	79519	2547.11932697713	0
0	79985	2560.60429436614	1
0	79985	2560.60429436614	0
0	80108	2567.43901569887	1
0	80108	2567.43901569887	0
0	80558	2571.69898369102	1
0	80558	2571.69898369102	0
0	80928	2579.34760037199	1
0	80928	2579.34760037199	0
0	81060	2583.23107124688	1
0	81060	2583.23107124688	0
0	81364	2588.34364755673	1
0	81364	2588.34364755673	0
0	81691	2617.73514479181	1
0	81691	2617.73514479181	0
0	82063	2627.96870588324	1
0	82063	2627.96870588324	0
0	82383	2634.79560990871	1
0	82383	2634.79560990871	0
0	82739	2664.87620900231	1
0	82739	2664.87620900231	0
0	83448	2702.15032385283	1
0	83448	2702.15032385283	0
0	83748	2707.10923556692	1
0	83748	2707.10923556692	0
0	83923	2710.06347568617	1
0	83923	2710.06347568617	0
0	84136	2713.5699266833	1
0	84136	2713.5699266833	0
0	84356	2726.04216205031	1
0	84356	2726.04216205031	0
0	84543	2729.41884070991	1
0	84543	2729.41884070991	0
0	84727	2732.67087113354	1
0	84750	2732.79481690444	0
0	84934	2735.2126327885	1
0	84934	2735.2126327885	0
0	85145	2737.88247621849	1
0	85202	2738.67225977372	0
0	85255	2739.84206474381	1
0	85338	2741.72344246881	0
0	85498	2749.23494783262	1
0	85498	2749.23494783262	0
0	85791	2753.43915654041	1
0	85791	2753.43915654041	0
0	86101	2755.88434639906	1
0	86101	2755.88434639906	0
0	86341	2766.96126930377	1
0	86341	2766.96126930377	0
0	86485	2769.98591518279	1
0	86485	2769.98591518279	0
0	86643	2773.40585680055	1
0	86643	2773.40585680055	0
0	87160	2794.54217117353	1
0	87160	2794.54217117353	0
0	87425	2803.74032881089	1
0	87425	2803.74032881089	0
0	87591	2805.81649360668	1
0	87591	2805.81649360668	0
0	87990	2825.0234365434	1
0	87990	2825.0234365434	0
0	88362	2839.83726867744	1
0	88362	2839.83726867744	0
0	88495	2854.9169663774	1
0	88495	2854.9169663774	0
0	88654	2859.10950639342	1
0	88654	2859.10950639342	0
0	89525	2889.81703796123	1
0	89525	2889.81703796123	0
0	89824	2902.8544139344	1
0	89824	2902.8544139344	0
0	90117	2911.74975187785	1
0	90117	2911.74975187785	0
0	90789	2921.05337123196	1
0	90789	2921.05337123196	0
0	91030	2926.50709624325	1
0	91030	2926.50709624325	0
0	91188	2929.99492178399	1
0	91188	2929.99492178399	0
0	91323	2935.03060220074	1
0	91323	2935.03060220074	0
0	91543	2944.57476763579	1
0	91543	2944.57476763579	0
0	91890	2949.75325360637	1
0	91890	2949.75325360637	0
0	92256	2953.65366885235	1
0	92256	2953.65366885235	0
0	92641	2966.87621336918	1
0	92641	2966.87621336918	0
0	92830	2977.73953901143	1
0	92830	2977.73953901143	0
0	93015	2987.02889727048	1
0	93015	2987.02889727048	0
0	93144	3001.56586921043	1
0	93144	3001.56586921043	0
0	93327	3005.42231945742	1
0	93327	3005.42231945742	0
0	93816	3016.07230807353	1
0	93816	3016.07230807353	0
0	93972	3019.36102372142	1
0	93972	3019.36102372142	0
0	94544	3052.35813385708	1
0	94544	3052.35813385708	0
0	94981	3080.74444171626	1
0	94981	3080.74444171626	0
0	95320	3085.99401836836	1
0	95320	3085.99401836836	0
0	95471	3092.46322317328	1
0	95471	3092.46322317328	0
0	95920	3104.92581378835	1
0	95920	3104.92581378835	0
0	96109	3106.65242093887	1
0	96109	3106.65242093887	0
0	96341	3119.46279436325	1
0	96341	3119.46279436325	0
0	96715	3125.20282051612	1
0	96715	3125.20282051612	0
0	97027	3133.22230405499	1
0	97027	3133.22230405499	0
0	97358	3137.97958079045	1
0	97358	3137.97958079045	0
0	97643	3139.99967184499	1
0	97643	3139.99967184499	0
0	98069	3151.67739957034	1
0	98069	3151.67739957034	0
0	98196	3156.17866755337	1
0	98196	3156.17866755337	0
0	98430	3163.83334755027	1
0	98430	3163.83334755027	0
0	98858	3180.93665456559	1
0	98858	3180.93665456559	0
0	99185	3188.54815100962	1
0	99185	3188.54815100962	0
0	99598	3203.4418502026	1
0	99598	3203.4418502026	0
0	99732	3206.69027565257	1
0	99732	3206.69027565257	0
0	100456	3258.8637363712	1
0	100456	3258.8637363712	0
0	100805	3270.02171513949	1
0	100805	3270.02171513949	0
0	101022	3279.83054735735	1
0	101022	3279.83054735735	0
0	101637	3289.99983071079	1
0	101637	3289.99983071079	0
0	101854	3297.44780814394	1
0	101854	3297.44780814394	0
0	102012	3299.2256085724	1
0	102012	3299.2256085724	0
0	102268	3309.32745396992	1
0	102268	3309.32745396992	0
0	102464	3314.31160943183	1
0	102464	3314.31160943183	0
0	102752	3318.04989829034	1
0	102752	3318.04989829034	0
0	102987	3321.14633775091	1
0	102987	3321.14633775091	0
0	103388	3327.07078493008	1
0	103388	3327.07078493008	0
0	103725	3334.12199127878	1
0	103725	3334.12199127878	0
0	103871	3336.10008016664	1
0	103871	3336.10008016664	0
0	103998	3339.2048238379	1
0	103998	3339.2048238379	0
0	104127	3349.85985645454	1
0	104127	3349.85985645454	0
0	104254	3351.74273491763	1
0	104254	3351.74273491763	0
0	104550	3363.16878925591	1
0	104550	3363.16878925591	0
0	104843	3368.47402993855	1
0	104843	3368.47402993855	0
0	104998	3370.99344859699	1
0	104998	3370.99344859699	0
0	105216	3381.57637549181	1
0	105216	3381.57637549181	0
0	105495	3397.8509178901	1
0	105495	3397.8509178901	0
0	105837	3420.06595590072	1
0	105837	3420.06595590072	0
0	105975	3425.30401314986	1
0	105975	3425.30401314986	0
0	106652	3451.75071812428	1
0	106652	3451.75071812428	0
0	106997	3471.32482060289	1
0	106997	3471.32482060289	0
0	107237	3478.30299264955	1
0	107237	3478.30299264955	0
0	107525	3481.95794087609	1
0	107525	3481.95794087609	0
0	107745	3487.39460925549	1
0	107745	3487.39460925549	0
0	108176	3502.54682777123	1
0	108176	3502.54682777123	0
0	108620	3515.97404340643	1
0	108620	3515.97404340643	0
0	108816	3521.65850911813	1
0	108816	3521.65850911813	0
0	109086	3526.3709909794	1
0	109086	3526.3709909794	0
0	109354	3531.26954958838	1
0	109354	3531.26954958838	0
0	109618	3534.69275522396	1
0	109618	3534.69275522396	0
0	109820	3536.89484289928	1
0	109820	3536.89484289928	0
0	110055	3542.94061041137	1
0	110055	3542.94061041137	0
0	110373	3548.47833413323	1
0	110373	3548.47833413323	0
0	110588	3555.98302314507	1
0	110588	3555.98302314507	0
0	110903	3568.52520908534	1
0	110903	3568.52520908534	0
1	5381	60.48076892174	1.71212977319
1	5579	74.82385924659	1.71213011485
1	5915	183.46550405582	1.71213257104
1	6570	189.02230241098	1.71213042016
1	7122	195.92597392609	1.71213027093
1	7587	199.44756097938	1.71213033382
1	7897	206.45071323001	1.71213058588
1	8020	211.92785119047	1.7121296935
1	8251	214.0150943226	1.7121301293
1	8642	216.42345766537	1.71213037353
1	9050	219.22842415233	1.71213002089
1	9188	221.49707127496	1.71212977954
1	9330	224.95621111943	1.71212965387
1	9788	234.51665008375	1.71213039846
1	10105	250.26359103868	1.71213061183
1	10286	252.58546721828	1.71213106778
1	10463	256.53100960221	1.71213011485
1	10639	263.61126360336	1.71212977319
1	11114	270.18805294955	1.71213074968
1	11288	285.88293001303	1.71213044898
1	11742	349.61783096744	1.71213258576
1	11847	361.65124271709	1.71213042016
1	11982	367.26414561867	1.71213067439
1	12220	372.08669282833	1.71213006704
1	12453	375.56670758218	1.71213021989
1	12811	384.20956838586	1.71213005012
1	13126	388.23987856424	1.71213119295
1	13940	396.8830702231	1.71212977954
1	14859	406.72537625483	1.71213136124
1	15098	411.70974135118	1.71213039846
1	15435	421.88600088797	1.71212965387
1	15728	427.40972909536	4.10277078669
1	15729	427.65011274451	2.35995264871
1	15850	436.79347945409	1.71213011485
1	16420	450.90368079543	1.71213061183
1	16656	452.73786045402	1.71213109161
1	16885	462.83164324103	1.71213044898
1	17283	482.40917433005	1.71213227719
1	17415	484.61777881639	1.71213122997
1	17538	529.51824863557	1.71213008176
1	17822	554.60113028876	1.71213006704
1	18003	557.68149887845	1.71213021989
1	18191	563.78527077005	1.71213042016
1	18651	570.25195362043	1.7121296935
1	19086	582.37241323872	1.71213265689
1	19243	585.8903543822	1.71212977954
1	19509	591.8985915966	1.71213070507
1	19691	594.69177814991	2.1829804629
1	19983	597.70376254245	1.71213136124
1	20277	600.89894260764	1.71213059304
1	20666	616.06983879682	1.71213261885
1	21435	634.15397824723	1.71213044898
1	21564	636.54325153097	1.71212965387
1	21709	645.15215408343	1.71213033382
1	22089	650.62620066965	5.30045896656
1	22090	650.7777864256	3.46382488755
1	22249	657.25979391648	1.71212977319
1	22455	660.37768242832	1.71213061183
1	22888	666.11778853492	1.7121301293
1	23148	685.72724608292	1.71213039846
1	23295	700.83740602536	1.71213109161
1	23418	733.86546051676	1.71213058588
1	23586	739.34281910109	1.71213272389
1	23696	746.63938410296	1.7121296935
1	24034	749.58862740398	1.71213006704
1	24279	753.9285695163	1.71213042016
1	24738	760.89564146181	1.71212977954
1	25164	772.3325270494	1.71213059304
1	25572	783.82000906369	1.71213136124
1	25805	790.14114642523	1.712130305
1	26373	809.54927865565	1.71213070507
1	27159	825.76607874173	1.71213027093
1	27355	831.85375774409	1.71212965387
1	27601	835.22377207623	1.71213011485
1	27898	842.60105859513	1.71213033382
1	28401	872.43018670452	1.71213325368
1	28694	903.27238772021	1.71213106778
1	29044	908.65324345495	3.57698843905
1	29257	914.0535492677	4.01652306885
1	29385	916.85848442948	2.25717318707
1	29652	923.38974412928	1.71213006704
1	29832	925.6566334743	1.71213042016
1	30240	944.07075441861	1.71212977954
1	30594	948.8408153154	1.7121296935
1	30997	956.88067665006	1.71213005012
1	31357	976.18391907371	1.71213008176
1	31824	993.56102761301	1.7121341479
1	32176	1005.77879405187	1.71213061183
1	32393	1011.07228695732	1.71212965387
1	32689	1016.07748258193	1.71213002089
1	32987	1024.78638730082	1.71213067439
1	33290	1029.50873516234	1.71213033382
1	33726	1037.35268838045	1.7121301293
1	34112	1050.11786403847	1.71213074968
1	34220	1070.65289983343	1.71213037353
1	34512	1089.42155611777	1.71212977319
1	34916	1096.43684885379	1.71213044898
1	35251	1099.58590469496	1.71213042016
1	35483	1103.75447252732	3.77360913748
1	35638	1106.8460960728	1.71213021989
1	35826	1114.30588679475	1.71213290246
1	35956	1121.90827858536	1.71213092026
1	36176	1136.51694759601	1.7121296935
1	36418	1147.87391332648	1.71213005012
1	36566	1149.93682708597	1.71213136124
1	36899	1163.83146697943	1.71213008176
1	37257	1172.90379175829	1.712130305
1	37485	1180.56974223047	1.71212977954
1	37946	1202.00688090816	1.71213067439
1	38073	1207.87886825701	1.71213027093
1	38379	1211.35618145486	1.71213058588
1	39459	1228.42742378305	1.71213119295
1	40183	1277.38597643092	1.71213011485
1	40314	1285.87166019793	1.71213039846
1	40435	1290.20513675758	1.71212977319
1	41373	1316.84962687313	1.71213059304
1	41487	1319.48033079401	1.71213002089
1	41641	1324.26660790097	1.71213070507
1	41806	1332.80189931086	1.71213005012
1	42150	1344.78496452788	1.7121296935
1	43210	1373.04920117356	1.71213008176
1	43631	1378.38228238766	1.71213092026
1	43740	1382.19447575484	1.71212977954
1	44086	1388.25763087532	1.71212965387
1	44435	1407.79964575635	1.7121301293
1	44676	1414.57560388015	1.71213027093
1	45435	1436.73520615365	1.71213109161
1	45600	1452.69965562992	1.71213037353
1	45845	1460.96701807338	1.71213039846
1	45970	1470.069223648	1.71213042016
1	46101	1476.38857242258	1.71212977319
1	46505	1487.52891888079	1.71213373397
1	46611	1494.62822734518	1.71213021989
1	46970	1503.27486994914	1.71213011485
1	47328	1508.38326633783	1.71213059304
1	47875	1523.61596530163	1.71213005012
1	48013	1529.56536129822	1.71213006704
1	48166	1542.55815914459	1.71213136124
1	48325	1544.42847899977	1.7121296935
1	48514	1547.74887448914	1.71213002089
1	48660	1556.49167235163	1.712130305
1	48776	1558.36860031375	1.71213044898
1	49013	1562.73033053212	1.71212977954
1	49261	1570.4714345621	1.71212965387
1	49516	1573.81261321527	1.71213092026
1	49944	1585.54596268835	1.7121301293
1	50211	1588.54672281366	1.71213074968
1	50840	1620.4055741044	1.71213109161
1	51161	1632.64531044867	1.71213027093
1	51301	1634.63708291203	1.71213039846
1	51450	1637.67720162377	1.71213168505
1	51770	1643.1370586804	1.71213042016
1	51918	1645.79968682927	1.71213033382
1	52038	1657.35362797775	1.71213037353
1	52192	1660.4994646758	1.71213122997
1	52325	1665.0168928368	1.71213106778
1	52910	1690.01722709809	1.71212977319
1	53116	1693.17885549929	1.71213011485
1	53350	1697.90580811702	1.71213005012
1	53987	1725.78220356558	1.71213002089
1	54340	1733.46013133633	1.71213295298
1	54446	1736.17253189397	1.71212977954
1	54697	1738.75158886522	1.712130305
1	54931	1747.42968364482	1.71213006704
1	55077	1750.83199479723	1.71213058588
1	55436	1760.93299539607	1.71213092026
1	55675	1766.40398952726	1.98600127912
1	56108	1777.32693780724	1.7121301293
1	56239	1779.04473258308	1.71212965387
1	56399	1784.2223247351	1.71213061183
1	56723	1797.59711263958	1.71213067439
1	56984	1808.09658688696	1.71213119295
1	57312	1824.81630698453	1.71213027093
1	57458	1829.04581680894	1.71213033382
1	57623	1831.03193664347	1.71213042016
1	57924	1842.27275764919	1.71213037353
1	58189	1853.2279430371	1.71213106778
1	58566	1870.52932422288	1.71213261885
1	58772	1872.59576660262	1.71212977319
1	59459	1899.37314890785	1.71213005012
1	59615	1905.87535278524	1.71213136124
1	59749	1910.40069939968	2.88042108474
1	59964	1920.68523781386	1.71213002089
1	60272	1932.3157956211	1.71213058588
1	60552	1939.57793152383	1.7121296935
1	60907	1948.31891974348	1.712130305
1	61489	1959.91893633533	1.71212965387
1	62315	1980.39975583442	1.71213006704
1	62724	1996.28540282252	1.71213309704
1	62844	2003.26642499906	1.71213033382
1	63174	2012.08817255418	1.71213067439
1	63333	2015.38510129388	1.71213211866
1	63596	2018.47919783287	1.71213042016
1	64007	2041.0839772396	1.71213037353
1	64162	2043.76097869393	1.71213106778
1	64281	2046.14403462131	1.71213011485
1	64543	2055.82596820232	1.71213039846
1	65237	2085.87050657311	1.71213136124
1	65456	2098.07693263214	1.71213005012
1	66041	2116.37419575349	1.71213252489
1	66201	2119.37244808149	1.7121296935
1	66607	2129.44816293872	1.71213021989
1	66803	2131.97498807711	1.712130305
1	67029	2134.5301179254	1.71212965387
1	67290	2136.81070965866	1.71213070507
1	67430	2139.70610157423	1.71213061183
1	67649	2153.53881904109	1.71213006704
1	68110	2166.63398506654	1.7121301293
1	68262	2169.44098375289	1.71213119295
1	68385	2183.33797429049	1.71213033382
1	68774	2194.73607513909	1.71212977954
1	68955	2197.71410185793	1.71213027093
1	69199	2202.27571198372	1.71213042016
1	69604	2225.22741577805	1.71212977319
1	70005	2237.98805566159	1.71213290246
1	70677	2248.70590863487	1.71213059304
1	71071	2269.29813073016	1.71213005012
1	71223	2274.1015081295	1.71213136124
1	71442	2288.70891550157	1.71213044898
1	71571	2290.85618610251	1.71213002089
1	71779	2294.13097560142	3.20782430337
1	71908	2294.85885998054	2.18433556687
1	72145	2297.49458266554	1.71213074968
1	72642	2326.27053372555	1.71213006704
1	72799	2331.84657864756	1.71213257293
1	73125	2340.31024395839	1.7121301293
1	73389	2348.02912758023	1.71213070507
1	73501	2353.47270037036	1.7121296935
1	74267	2369.75594690294	1.71212977954
1	74467	2375.38601291024	1.71213067439
1	74753	2379.67003392769	1.71213042016
1	75513	2407.6674810844	1.71213037353
1	75967	2425.933971743	1.71212977319
1	76329	2445.83262772913	1.71213039846
1	76906	2474.00843125551	1.71213074968
1	77043	2477.18041215819	1.71213122997
1	77365	2482.87405373853	1.71213255412
1	77535	2492.63611042958	1.71213044898
1	77791	2503.17382871947	1.71213182177
1	78038	2513.25828355104	1.71213002089
1	78269	2515.05793621317	1.71213006704
1	78509	2519.1285657355	1.7121301293
1	78779	2523.83613767812	3.50591893037
1	78994	2528.56861005297	1.7121296935
1	79138	2535.47008445404	1.71213008176
1	79282	2539.88389031423	1.71213119295
1	79519	2547.11932697713	1.71212977954
1	79985	2560.60429436614	1.71213011485
1	80558	2571.69898369102	1.71212965387
1	80928	2579.34760037199	1.712130305
1	81060	2583.23107124688	1.71213033382
1	81364	2588.34364755673	1.71213106778
1	81691	2617.73514479181	1.71213227719
1	82063	2627.96870588324	1.71213037353
1	82383	2634.79560990871	1.71213059304
1	82739	2664.87620900231	1.71213122997
1	83448	2702.15032385283	1.7121296935
1	83748	2707.10923556692	1.71213008176
1	83923	2710.06347568617	1.7121301293
1	84136	2713.5699266833	1.71213136124
1	84356	2726.04216205031	1.71212977954
1	84543	2729.41884070991	1.71213005012
1	84750	2732.79481690444	1.83607621988
1	84934	2735.2126327885	1.71213092026
1	85202	2738.67225977372	2.50191617408
1	85338	2741.72344246881	3.59350779204
1	85498	2749.23494783262	1.71213027093
1	85791	2753.43915654041	1.71212965387
1	86341	2766.96126930377	1.712130305
1	86485	2769.98591518279	1.71213109161
1	86643	2773.40585680055	1.71213042016
1	87160	2794.54217117353	1.71212977319
1	87425	2803.74032881089	1.71213061183
1	87990	2825.0234365434	1.71213037353
1	88362	2839.83726867744	1.71213074968
1	88495	2854.9169663774	1.7121315686
1	88654	2859.10950639342	1.71213432577
1	89525	2889.81703796123	1.71213008176
1	89824	2902.8544139344	1.7121296935
1	90117	2911.74975187785	1.71213005012
1	90789	2921.05337123196	1.71213044898
1	91030	2926.50709624325	1.71212977954
1	91188	2929.99492178399	1.71213119295
1	91323	2935.03060220074	1.71213092026
1	91890	2949.75325360637	1.71213002089
1	92256	2953.65366885235	1.71213070507
1	92641	2966.87621336918	1.71212977319
1	92830	2977.73953901143	1.71213042016
1	93015	2987.02889727048	1.71213283782
1	93144	3001.56586921043	1.71213059304
1	93327	3005.42231945742	1.71213061183
1	93816	3016.07230807353	1.71213037353
1	93972	3019.36102372142	1.71213074968
1	94544	3052.35813385708	1.71213265689
1	95320	3085.99401836836	1.71213006704
1	96109	3106.65242093887	1.71213008176
1	96341	3119.46279436325	1.71213369695
1	96715	3125.20282051612	1.71212965387
1	97027	3133.22230405499	1.712130305
1	97358	3137.97958079045	1.71213021989
1	97643	3139.99967184499	1.71213027093
1	98069	3151.67739957034	1.71213044898
1	98196	3156.17866755337	1.71212977954
1	98430	3163.83334755027	1.71212977319
1	98858	3180.93665456559	1.71213061183
1	99185	3188.54815100962	1.71213037353
1	99598	3203.4418502026	1.71213002089
1	99732	3206.69027565257	1.71213039846
1	100456	3258.8637363712	1.71213564733
1	100805	3270.02171513949	1.7121316439
1	101022	3279.83054735735	1.7121296935
1	101637	3289.99983071079	1.7121301293
1	101854	3297.44780814394	1.71213136124
1	102012	3299.2256085724	1.71212965387
1	102464	3314.31160943183	1.71213106778
1	102752	3318.04989829034	1.71213070507
1	102987	3321.14633775091	1.71213058588
1	103388	3327.07078493008	1.71213011485
1	103725	3334.12199127878	1.71213027093
1	103871	3336.10008016664	1.71213033382
1	104127	3349.85985645454	1.71213021989
1	104254	3351.74273491763	1.71212977954
1	104550	3363.16878925591	1.71212977319
1	104843	3368.47402993855	1.71213037353
1	104998	3370.99344859699	1.71213061183
1	105216	3381.57637549181	1.71213325368
1	105495	3397.8509178901	1.71213039846
1	106652	3451.75071812428	1.7121296935
1	106997	3471.32482060289	1.71212965387
1	107237	3478.30299264955	1.71213006704
1	107525	3481.95794087609	1.7121301293
1	107745	3487.39460925549	1.71213106778
1	108620	3515.97404340643	1.71213033382
1	108816	3521.65850911813	1.71213058588
1	109086	3526.3709909794	1.71213027093
1	109354	3531.26954958838	1.71213092026
1	109618	3534.69275522396	1.71212977319
1	109820	3536.89484289928	1.71213008176
1	110055	3542.94061041137	1.71212977954
1	110373	3548.47833413323	1.71213061183
1	110588	3555.98302314507	1.71213021989
1	110903	3568.52520908534	1.71213059304
2	5381	60.48076892174	1.71212977319
2	5579	74.82385924659	1.71213011485
2	5915	183.46550405582	1.71213257104
2	6570	189.02230241098	1.71213042016
2	7122	195.92597392609	1.71213027093
2	7587	199.44756097938	1.71213033382
2	7897	206.45071323001	1.71213058588
2	8020	211.92785119047	1.7121296935
2	8251	214.0150943226	1.7121301293
2	8642	216.42345766537	1.71213037353
2	9050	219.22842415233	1.71213002089
2	9188	221.49707127496	1.71212977954
2	9330	224.95621111943	1.71212965387
2	9788	234.51665008375	1.71213039846
2	10105	250.26359103868	1.71213061183
2	10286	252.58546721828	1.71213106778
2	10463	256.53100960221	1.71213011485
2	10639	263.61126360336	1.71212977319
2	11114	270.18805294955	1.71213074968
2	11288	285.88293001303	1.71213044898
2	11742	349.61783096744	1.71213258576
2	11847	361.65124271709	1.71213042016
2	11982	367.26414561867	1.71213067439
2	12220	372.08669282833	1.71213006704
2	12453	375.56670758218	1.71213021989
2	12811	384.20956838586	1.71213005012
2	13126	388.23987856424	1.71213119295
2	13940	396.8830702231	1.71212977954
2	14859	406.72537625483	1.71213136124
2	15098	411.70974135118	1.71213039846
2	15435	421.88600088797	1.71212965387
2	15728	427.40972909536	4.10277078669
2	15729	427.65011274451	2.35995264871
2	15850	436.79347945409	1.71213011485
2	16420	450.90368079543	1.71213061183
2	16656	452.73786045402	1.71213109161
2	16885	462.83164324103	1.71213044898
2	17283	482.40917433005	1.71213227719
2	17415	484.61777881639	1.71213122997
2	17538	529.51824863557	1.71213008176
2	17822	554.60113028876	1.71213006704
2	18003	557.68149887845	1.71213021989
2	18191	563.78527077005	1.71213042016
2	18651	570.25195362043	1.7121296935
2	19086	582.37241323872	1.71213265689
2	19243	585.8903543822	1.71212977954
2	19509	591.8985915966	1.71213070507
2	19691	594.69177814991	2.1829804629
2	19983	597.70376254245	1.71213136124
2	20277	600.89894260764	1.71213059304
2	20666	616.06983879682	1.71213261885
2	21435	634.15397824723	1.71213044898
2	21564	636.54325153097	1.71212965387
2	21709	645.15215408343	1.71213033382
2	22089	650.62620066965	5.30045896656
2	22090	650.7777864256	3.46382488755
2	22249	657.25979391648	1.71212977319
2	22455	660.37768242832	1.71213061183
2	22888	666.11778853492	1.7121301293
2	23148	685.72724608292	1.71213039846
2	23295	700.83740602536	1.71213109161
2	23418	733.86546051676	1.71213058588
2	23586	739.34281910109	1.71213272389
2	23696	746.63938410296	1.7121296935
2	24034	749.58862740398	1.71213006704
2	24279	753.9285695163	1.71213042016
2	24738	760.89564146181	1.71212977954
2	25164	772.3325270494	1.71213059304
2	25572	783.82000906369	1.71213136124
2	25805	790.14114642523	1.712130305
2	26373	809.54927865565	1.71213070507
2	27159	825.76607874173	1.71213027093
2	27355	831.85375774409	1.71212965387
2	27601	835.22377207623	1.71213011485
2	27898	842.60105859513	1.71213033382
2	28401	872.43018670452	1.71213325368
2	28694	903.27238772021	1.71213106778
2	29044	908.65324345495	3.57698843905
2	29257	914.0535492677	4.01652306885
2	29385	916.85848442948	2.25717318707
2	29652	923.38974412928	1.71213006704
2	29832	925.6566334743	1.71213042016
2	30240	944.07075441861	1.71212977954
2	30594	948.8408153154	1.7121296935
2	30997	956.88067665006	1.71213005012
2	31357	976.18391907371	1.71213008176
2	31824	993.56102761301	1.7121341479
2	32176	1005.77879405187	1.71213061183
2	32393	1011.07228695732	1.71212965387
2	32689	1016.07748258193	1.71213002089
2	32987	1024.78638730082	1.71213067439
2	33290	1029.50873516234	1.71213033382
2	33726	1037.35268838045	1.7121301293
2	34112	1050.11786403847	1.71213074968
2	34220	1070.65289983343	1.71213037353
2	34512	1089.42155611777	1.71212977319
2	34916	1096.43684885379	1.71213044898
2	35251	1099.58590469496	1.71213042016
2	35483	1103.75447252732	3.77360913748
2	35638	1106.8460960728	1.71213021989
2	35826	1114.30588679475	1.71213290246
2	35956	1121.90827858536	1.71213092026
2	36176	1136.51694759601	1.7121296935
2	36418	1147.87391332648	1.71213005012
2	36566	1149.93682708597	1.71213136124
2	36899	1163.83146697943	1.71213008176
2	37257	1172.90379175829	1.712130305
2	37485	1180.56974223047	1.71212977954
2	37946	1202.00688090816	1.71213067439
2	38073	1207.87886825701	1.71213027093
2	38379	1211.35618145486	1.71213058588
2	39459	1228.42742378305	1.71213119295
2	40183	1277.38597643092	1.71213011485
2	40314	1285.87166019793	1.71213039846
2	40435	1290.20513675758	1.71212977319
2	41373	1316.84962687313	1.71213059304
2	41487	1319.48033079401	1.71213002089
2	41641	1324.26660790097	1.71213070507
2	41806	1332.80189931086	1.71213005012
2	42150	1344.78496452788	1.7121296935
2	43210	1373.04920117356	1.71213008176
2	43631	1378.38228238766	1.71213092026
2	43740	1382.19447575484	1.71212977954
2	44086	1388.25763087532	1.71212965387
2	44435	1407.79964575635	1.7121301293
2	44676	1414.57560388015	1.71213027093
2	45435	1436.73520615365	1.71213109161
2	45600	1452.69965562992	1.71213037353
2	45845	1460.96701807338	1.71213039846
2	45970	1470.069223648	1.71213042016
2	46101	1476.38857242258	1.71212977319
2	46505	1487.52891888079	1.71213373397
2	46611	1494.62822734518	1.71213021989
2	46970	1503.27486994914	1.71213011485
2	47328	1508.38326633783	1.71213059304
2	47875	1523.61596530163	1.71213005012
2	48013	1529.56536129822	1.71213006704
2	48166	1542.55815914459	1.71213136124
2	48325	1544.42847899977	1.7121296935
2	48514	1547.74887448914	1.71213002089
2	48660	1556.49167235163	1.712130305
2	48776	1558.36860031375	1.71213044898
2	49013	1562.73033053212	1.71212977954
2	49261	1570.4714345621	1.71212965387
2	49516	1573.81261321527	1.71213092026
2	49944	1585.54596268835	1.7121301293
2	50211	1588.54672281366	1.71213074968
2	50840	1620.4055741044	1.71213109161
2	51161	1632.64531044867	1.71213027093
2	51301	1634.63708291203	1.71213039846
2	51450	1637.67720162377	1.71213168505
2	51770	1643.1370586804	1.71213042016
2	51918	1645.79968682927	1.71213033382
2	52038	1657.35362797775	1.71213037353
2	52192	1660.4994646758	1.71213122997
2	52325	1665.0168928368	1.71213106778
2	52910	1690.01722709809	1.71212977319
2	53116	1693.17885549929	1.71213011485
2	53350	1697.90580811702	1.71213005012
2	53987	1725.78220356558	1.71213002089
2	54340	1733.46013133633	1.71213295298
2	54446	1736.17253189397	1.71212977954
2	54697	1738.75158886522	1.712130305
2	54931	1747.42968364482	1.71213006704
2	55077	1750.83199479723	1.71213058588
2	55436	1760.93299539607	1.71213092026
2	55675	1766.40398952726	1.98600127912
2	56108	1777.32693780724	1.7121301293
2	56239	1779.04473258308	1.71212965387
2	56399	1784.2223247351	1.71213061183
2	56723	1797.59711263958	1.71213067439
2	56984	1808.09658688696	1.71213119295
2	57312	1824.81630698453	1.71213027093
2	57458	1829.04581680894	1.71213033382
2	57623	1831.03193664347	1.71213042016
2	57924	1842.27275764919	1.71213037353
2	58189	1853.2279430371	1.71213106778
2	58566	1870.52932422288	1.71213261885
2	58772	1872.59576660262	1.71212977319
2	59459	1899.37314890785	1.71213005012
2	59615	1905.87535278524	1.71213136124
2	59749	1910.40069939968	2.88042108474
2	59964	1920.68523781386	1.71213002089
2	60272	1932.3157956211	1.71213058588
2	60552	1939.57793152383	1.7121296935
2	60907	1948.31891974348	1.712130305
2	61489	1959.91893633533	1.71212965387
2	62315	1980.39975583442	1.71213006704
2	62724	1996.28540282252	1.71213309704
2	62844	2003.26642499906	1.71213033382
2	63174	2012.08817255418	1.71213067439
2	63333	2015.38510129388	1.71213211866
2	63596	2018.47919783287	1.71213042016
2	64007	2041.0839772396	1.71213037353
2	64162	2043.76097869393	1.71213106778
2	64281	2046.14403462131	1.71213011485
2	64543	2055.82596820232	1.71213039846
2	65237	2085.87050657311	1.71213136124
2	65456	2098.07693263214	1.71213005012
2	66041	2116.37419575349	1.71213252489
2	66201	2119.37244808149	1.7121296935
2	66607	2129.44816293872	1.71213021989
2	66803	2131.97498807711	1.712130305
2	67029	2134.5301179254	1.71212965387
2	67290	2136.81070965866	1.71213070507
2	67430	2139.70610157423	1.71213061183
2	67649	2153.53881904109	1.71213006704
2	68110	2166.63398506654	1.7121301293
2	68262	2169.44098375289	1.71213119295
2	68385	2183.33797429049	1.71213033382
2	68774	2194.73607513909	1.71212977954
2	68955	2197.71410185793	1.71213027093
2	69199	2202.27571198372	1.71213042016
2	69604	2225.22741577805	1.71212977319
2	70005	2237.98805566159	1.71213290246
2	70677	2248.70590863487	1.71213059304
2	71071	2269.29813073016	1.71213005012
2	71223	2274.1015081295	1.71213136124
2	71442	2288.70891550157	1.71213044898
2	71571	2290.85618610251	1.71213002089
2	71779	2294.13097560142	3.20782430337
2	71908	2294.85885998054	2.18433556687
2	72145	2297.49458266554	1.71213074968
2	72642	2326.27053372555	1.71213006704
2	72799	2331.84657864756	1.71213257293
2	73125	2340.31024395839	1.7121301293
2	73389	2348.02912758023	1.71213070507
2	73501	2353.47270037036	1.7121296935
2	74267	2369.75594690294	1.71212977954
2	74467	2375.38601291024	1.71213067439
2	74753	2379.67003392769	1.71213042016
2	75513	2407.6674810844	1.71213037353
2	75967	2425.933971743	1.71212977319
2	76329	2445.83262772913	1.71213039846
2	76906	2474.00843125551	1.71213074968
2	77043	2477.18041215819	1.71213122997
2	77365	2482.87405373853	1.71213255412
2	77535	2492.63611042958	1.71213044898
2	77791	2503.17382871947	1.71213182177
2	78038	2513.25828355104	1.71213002089
2	78269	2515.05793621317	1.71213006704
2	78509	2519.1285657355	1.7121301293
2	78779	2523.83613767812	3.50591893037
2	78994	2528.56861005297	1.7121296935
2	79138	2535.47008445404	1.71213008176
2	79282	2539.88389031423	1.71213119295
2	79519	2547.11932697713	1.71212977954
2	79985	2560.60429436614	1.71213011485
2	80558	2571.69898369102	1.71212965387
2	80928	2579.34760037199	1.712130305
2	81060	2583.23107124688	1.71213033382
2	81364	2588.34364755673	1.71213106778
2	81691	2617.73514479181	1.71213227719
2	82063	2627.96870588324	1.71213037353
2	82383	2634.79560990871	1.71213059304
2	82739	2664.87620900231	1.71213122997
2	83448	2702.15032385283	1.7121296935
2	83748	2707.10923556692	1.71213008176
2	83923	2710.06347568617	1.7121301293
2	84136	2713.5699266833	1.71213136124
2	84356	2726.04216205031	1.71212977954
2	84543	2729.41884070991	1.71213005012
2	84750	2732.79481690444	1.83607621988
2	84934	2735.2126327885	1.71213092026
2	85202	2738.67225977372	2.50191617408
2	85338	2741.72344246881	3.59350779204
2	85498	2749.23494783262	1.71213027093
2	85791	2753.43915654041	1.71212965387
2	86341	2766.96126930377	1.712130305
2	86485	2769.98591518279	1.71213109161
2	86643	2773.40585680055	1.71213042016
2	87160	2794.54217117353	1.71212977319
2	87425	2803.74032881089	1.71213061183
2	87990	2825.0234365434	1.71213037353
2	88362	2839.83726867744	1.71213074968
2	88495	2854.9169663774	1.7121315686
2	88654	2859.10950639342	1.71213432577
2	89525	2889.81703796123	1.71213008176
2	89824	2902.8544139344	1.7121296935
2	90117	2911.74975187785	1.71213005012
2	90789	2921.05337123196	1.71213044898
2	91030	2926.50709624325	1.71212977954
2	91188	2929.99492178399	1.71213119295
2	91323	2935.03060220074	1.71213092026
2	91890	2949.75325360637	1.71213002089
2	92256	2953.65366885235	1.71213070507
2	92641	2966.87621336918	1.71212977319
2	92830	2977.73953901143	1.71213042016
2	93015	2987.02889727048	1.71213283782
2	93144	3001.56586921043	1.71213059304
2	93327	3005.42231945742	1.71213061183
2	93816	3016.07230807353	1.71213037353
2	93972	3019.36102372142	1.71213074968
2	94544	3052.35813385708	1.71213265689
2	95320	3085.99401836836	1.71213006704
2	96109	3106.65242093887	1.71213008176
2	96341	3119.46279436325	1.71213369695
2	96715	3125.20282051612	1.71212965387
2	97027	3133.22230405499	1.712130305
2	97358	3137.97958079045	1.71213021989
2	97643	3139.99967184499	1.71213027093
2	98069	3151.67739957034	1.71213044898
2	98196	3156.17866755337	1.71212977954
2	98430	3163.83334755027	1.71212977319
2	98858	3180.93665456559	1.71213061183
2	99185	3188.54815100962	1.71213037353
2	99598	3203.4418502026	1.71213002089
2	99732	3206.69027565257	1.71213039846
2	100456	3258.8637363712	1.71213564733
2	100805	3270.02171513949	1.7121316439
2	101022	3279.83054735735	1.7121296935
2	101637	3289.99983071079	1.7121301293
2	101854	3297.44780814394	1.71213136124
2	102012	3299.2256085724	1.71212965387
2	102464	3314.31160943183	1.71213106778
2	102752	3318.04989829034	1.71213070507
2	102987	3321.14633775091	1.71213058588
2	103388	3327.07078493008	1.71213011485
2	103725	3334.12199127878	1.71213027093
2	103871	3336.10008016664	1.71213033382
2	104127	3349.85985645454	1.71213021989
2	104254	3351.74273491763	1.71212977954
2	104550	3363.16878925591	1.71212977319
2	104843	3368.47402993855	1.71213037353
2	104998	3370.99344859699	1.71213061183
2	105216	3381.57637549181	1.71213325368
2	105495	3397.8509178901	1.71213039846
2	106652	3451.75071812428	1.7121296935
2	106997	3471.32482060289	1.71212965387
2	107237	3478.30299264955	1.71213006704
2	107525	3481.95794087609	1.7121301293
2	107745	3487.39460925549	1.71213106778
2	108620	3515.97404340643	1.71213033382
2	108816	3521.65850911813	1.71213058588
2	109086	3526.3709909794	1.71213027093
2	109354	3531.26954958838	1.71213092026
2	109618	3534.69275522396	1.71212977319
2	109820	3536.89484289928	1.71213008176
2	110055	3542.94061041137	1.71212977954
2	110373	3548.47833413323	1.71213061183
2	110588	3555.98302314507	1.71213021989
2	110903	3568.52520908534	1.71213059304
3	5416	73.11172913174	560.40951785308
3	10296	254.81887948736	1092.0172763521
3	15740	435.08134933924	260.96417986775
3	20513	614.35770617797	375.24450535465
3	27433	833.51164196138	461.03624790836
3	35282	1099.98086338984	101.48535790775
3	40021	1275.67384631607	777.62545237665
3	46754	1501.56273983429	1114.6546041585
3	52996	1691.46672538444	315.9832792285
3	58416	1868.81719160403	395.8141552483
3	64165	2044.43190450646	357.86068052755
3	71720	2292.67452441367	140.70097770234
3	79821	2558.89216425129	1279.0963221576
3	84989	2736.17034359964	400.37055738112
3	90140	2912.24936056002	381.54559049706
3	95361	3090.75109305843	30.431242309125
3	103173	3325.35865481523	57.766366538004
3	108830	3523.71804932731	463.22137351931
4	5469	73.7655371912	167.89518877688
4	9931	248.55146042685	673.22690680341
4	16195	449.1915501836	780.39997909918
4	22280	658.66555181649	661.25063273768
4	27255	831.1823383496	446.71600690378
4	32002	1004.06666344004	102.91754812016
4	39482	1234.3918419004	41.32673749864
4	44931	1426.41937597915	481.974405899
4	50503	1608.00533461367	20.225495383534
4	56275	1782.51019412327	775.31932377738
4	61282	1957.62324084939	194.90985005057
4	67297	2137.9939709624	924.19234139415
4	73531	2359.76802441926	32.312201659637
4	80137	2568.28006083678	922.13282952302
4	87301	2802.02819819906	192.5308479576
4	93152	3003.71018884559	67.095170248369
4	98632	3179.22452395376	442.17046834179
4	104872	3369.28131798516	553.64463305647
4	110244	3546.7662035214	769.83517222156
5	5656	92.53596681421	1006.4522479676
5	10722	264.94443460452	451.01307024833
5	15921	439.9056767545	320.01875373342
5	20942	623.26571715748	146.10712611471
5	26486	811.60973792987	1115.3997505011
5	31514	988.82812601437	692.90170176674
5	37734	1196.27333309951	2965.0818568897
5	43225	1373.07019277832	711.12543563657
5	49586	1582.8479076006	101.7351952452
5	55498	1765.42107060732	182.23465263313
5	60585	1944.49998313272	214.99014927709
5	67056	2134.77399067326	407.67011022151
5	74491	2375.58412750618	932.66687007754
5	79553	2552.31350219585	546.12237209457
5	85282	2740.55095377866	16.306275389688
5	91567	2944.73602715648	873.42821359488
5	98466	3167.03347010377	239.71589252078
5	104634	3365.90904563603	450.37522221234
5	110085	3544.24487642618	35.809209939246
6	5765	181.75337148478	152.25788481871
6	12011	370.37456276129	1937.154930463
6	17666	552.88900022172	2385.3739951973
6	23775	747.87649733694	1093.30044284
6	29497	921.67761406224	1021.0386030486
6	34762	1095.59959031412	379.93839608813
6	42049	1344.45111903105	683.03381085119
6	47913	1527.85323123118	775.00158696828
6	54830	1745.71755357778	298.61014807092
6	62156	1978.68762576738	319.20665170819
6	67498	2151.82668897405	388.93775439803
6	72490	2324.55840365851	847.23471250144
6	78060	2513.34580614613	76.783705053555
6	85148	2738.12993467677	130.19130612103
6	90195	2913.05344270056	36.202018942855
6	95115	3084.28188830132	523.59767964451
6	101104	3282.25001831061	280.90787960739
6	107084	3476.59086258251	543.92383839629
7	5917	183.82880281321	41.034056924046
7	12654	382.49743833574	492.84007493608
7	19145	584.3823574114	689.91798043244
7	24365	755.71591317691	3.337107506021
7	30840	955.16854659994	123.10085746826
7	36313	1146.16178327636	102.4146360465
7	41651	1331.08976926074	361.47574635682
7	47718	1521.90383525151	1108.8853288024
7	53194	1696.1936780669	300.42857703692
7	59306	1897.66101885773	100.69874831892
7	65351	2096.36480258202	888.27683402812
7	70969	2267.58600068004	161.24112050849
7	77157	2481.16192118441	504.99182875502
7	84386	2727.70671065979	198.10825231256
7	89963	2910.03762182773	181.09742898881
7	95816	3103.21368373823	4.2576928162984
7	101046	3280.66611125697	2151.4547410879
7	109411	3532.14741947654	1834.1163260694
8	5973	185.44468193074	410.88672030684
8	12949	387.31821225886	883.80004298606
8	18095	562.42113182018	96.43108346965
8	24882	769.15877233272	432.65671872853
8	33761	1038.74898041895	1173.0604619305
8	38158	1210.15342412538	1189.9898694915
8	44986	1427.01174400971	338.45354622641
8	51510	1639.00069039259	289.13963975984
8	57525	1829.9001726218	762.09268332928
8	63335	2015.43847922443	85.747411727429
8	68677	2193.18790517324	782.53392438816
8	74654	2378.42164320437	146.70725740625
8	79658	2555.38485407429	2476.8448391175
8	87193	2797.85969665917	78.290391266725
8	93206	3005.19262187595	65.99005181634
8	99759	3214.83637229627	233.9142432538
8	108026	3501.99300594914	424.67674909446
9	6076	185.54093286333	1.71213005012
9	6780	190.67532408422	1.71213059304
9	26768	819.2046965204	1.71213002089
9	29177	910.95834458101	3.13381594498
9	31495	983.2456422815	1.712130305
9	38712	1215.61804630751	1.71212965387
9	39685	1236.10397501623	1.71213311583
9	41112	1310.76959495494	1.71213021989
9	42828	1361.17072186727	1.71213295298
9	50705	1609.7174677295	1.71213311583
9	53803	1724.05643965703	1.7121296935
9	61154	1950.34444777006	1.71213211091
9	61621	1963.80109099738	1.7121301293
9	62072	1977.625841394	1.71212977954
9	64400	2049.62054530347	1.71212977319
9	65825	2110.19254073149	1.71213260614
9	73734	2361.48015753509	1.71213311583
9	75172	2395.07402841705	1.71213033382
9	77927	2508.9683136664	1.71213162449
9	79413	2542.90311911837	2.89159788246
9	80108	2567.43901569887	1.71213027093
9	86101	2755.88434639906	1.71213119295
9	87591	2805.81649360668	1.71213039846
9	91543	2944.57476763579	1.71212965387
9	94981	3080.74444171626	1.7121296935
9	95471	3092.46322317328	1.71213011485
9	95920	3104.92581378835	1.71213005012
9	102268	3309.32745396992	1.712130305
9	103998	3339.2048238379	1.71213044898
9	105837	3420.06595590072	1.71213042016
9	105975	3425.30401314986	1.71213002089
9	108176	3502.54682777123	1.71213359561
10	6076	185.54093286333	1.71213005012
10	6780	190.67532408422	1.71213059304
10	26768	819.2046965204	1.71213002089
10	29177	910.95834458101	3.13381594498
10	31495	983.2456422815	1.712130305
10	38712	1215.61804630751	1.71212965387
10	39685	1236.10397501623	1.71213311583
10	41112	1310.76959495494	1.71213021989
10	42828	1361.17072186727	1.71213295298
10	50705	1609.7174677295	1.71213311583
10	53803	1724.05643965703	1.7121296935
10	61154	1950.34444777006	1.71213211091
10	61621	1963.80109099738	1.7121301293
10	62072	1977.625841394	1.71212977954
10	64400	2049.62054530347	1.71212977319
10	65825	2110.19254073149	1.71213260614
10	73734	2361.48015753509	1.71213311583
10	75172	2395.07402841705	1.71213033382
10	77927	2508.9683136664	1.71213162449
10	79413	2542.90311911837	2.89159788246
10	80108	2567.43901569887	1.71213027093
10	86101	2755.88434639906	1.71213119295
10	87591	2805.81649360668	1.71213039846
10	91543	2944.57476763579	1.71212965387
10	94981	3080.74444171626	1.7121296935
10	95471	3092.46322317328	1.71213011485
10	95920	3104.92581378835	1.71213005012
10	102268	3309.32745396992	1.712130305
10	103998	3339.2048238379	1.71213044898
10	105837	3420.06595590072	1.71213042016
10	105975	3425.30401314986	1.71213002089
10	108176	3502.54682777123	1.71213359561
11	6098	186.25294045409	521.09670841054
11	12064	371.0823889414	1074.4335095015
11	20408	610.98390542728	1135.4381526805
11	26666	817.57476643918	1123.6032520385
11	31619	991.84889346511	147.78305296111
11	37623	1192.148084226	76.75482528058
11	42837	1369.9175168556	1169.7629346581
11	50341	1602.28446864259	1673.7441756236
11	56406	1786.41149769072	826.80517160799
11	61763	1974.1788797731	428.5022545288
11	67903	2159.50337133478	19.091646782708
11	72857	2333.67810026195	344.40301932322
11	78593	2520.43171217386	671.01136565529
11	83527	2704.53817194246	245.9108047702
11	89723	2901.99539728716	2422.0039799383
11	95596	3096.99965279582	184.71388201805
11	100683	3268.30958349559	103.06349623495
11	106680	3454.79220643019	309.44222959756
12	6152	186.47423084865	9.1631158435787
12	12351	373.85457736229	1876.0154219222
12	17901	555.96936865856	2094.5748676797
12	23433	737.6306863772	453.46855100602
12	29120	910.03702619885	145.54493672303
12	35486	1105.13396585291	681.30850771844
12	41010	1309.05746473505	33.12091784064
12	46514	1492.91609712529	445.09564436833
12	53882	1725.00853837071	532.20135957603
12	59253	1896.98910444794	344.31230959808
12	66451	2127.73603271883	799.10513635488
12	74782	2379.73058458135	478.26712944483
12	84440	2728.15711084031	315.00289224551
12	90473	2918.07839714417	372.65826157734
12	97101	3136.26745057056	368.29510793242
12	104030	3348.14772623465	83.096735872287
12	110439	3554.27089292518	608.00270495773
13	6259	187.31017199082	333.28436351445
13	11751	359.93911229693	1284.6923011736
13	18042	562.07314034989	393.85886221666
13	24174	752.21643909614	1248.9656713141
13	29728	923.94450305414	503.8779452068
13	35147	1097.8737742748	428.40673042607
13	40464	1291.22834225068	736.20006347487
13	45874	1468.35709322784	278.42166667044
13	51668	1641.42492826024	706.97790259148
13	57472	1829.31980622331	257.14019472247
13	63393	2016.76706741271	112.16452848386
13	69098	2200.56358156356	418.76800854259
13	74599	2377.95790350753	181.06900225185
13	79765	2557.65133041472	348.64689736975
13	86492	2771.69372638039	994.57001755886
13	92734	2976.02740859127	1149.5009797113
13	98736	3180.30045900359	225.33942813399
13	105738	3418.35382548056	43.872769178909
14	6419	188.24745697424	654.05242018666
14	13002	387.54776214531	1075.5280438679
14	18494	568.64661498001	198.51679817104
14	24990	770.82685575733	156.41427928039
14	30325	945.7729922259	56.886651002017
14	35835	1120.1961476651	326.02053838189
14	43498	1376.6701514674	1576.298915388
14	49341	1572.10048229501	197.03723460288
14	55313	1759.22086447581	1077.6208172906
14	60156	1931.38107038212	480.44129179548
14	65540	2105.23415979059	64.78393641707
14	72202	2298.34057433238	200.0740408444
14	78169	2514.75062542862	1222.3510991409
14	84754	2733.50050186824	2849.0050366192
14	91199	2933.31847128048	342.15695831331
14	98579	3177.95222405095	1151.6493592794
14	104292	3357.07339998541	140.3355641223
14	109177	3529.55741866812	390.56721244424
15	6473	188.96319349118	13.107441739129
15	15465	423.30695830867	1002.5178301819
15	20045	599.1868120146	582.62268754897
15	24936	770.62039645636	1993.2074256165
15	30680	953.07467372244	75.91136036606
15	36206	1140.82212323429	595.1330723621
15	41201	1315.13749628009	155.85828082802
15	47148	1506.67113574479	1172.2031200903
15	55443	1764.41798824814	75.601771756145
15	62574	1994.57326972548	518.54114279309
15	70450	2246.99377804183	1275.3821478326
15	75871	2425.44640285552	58.724813355555
15	82212	2633.08347931567	449.08018298901
15	87670	2809.10921969812	2756.2464214068
15	93024	2999.85373861739	1602.7156621795
15	99329	3193.36445619828	14.449961660643
15	105066	3381.27115754108	256.64368165251
15	110679	3566.8130784923	453.2209415684
16	6603	189.90055559659	273.49795190991
16	12117	371.09508405824	129.00521110814
16	18273	565.24868718853	1142.8826657836
16	23881	748.41474900411	857.49008103663
16	30141	942.80189671737	1166.5532511129
16	37032	1168.07404440411	464.73581890398
16	42175	1345.48330808441	476.21697177015
16	49971	1585.71883530998	191.92220330551
16	55906	1774.89999702016	166.79310306116
16	60973	1948.63231565915	12.476149840438
16	66817	2132.74998739738	594.20465188424
16	73787	2362.21102405152	175.70569076682
16	79284	2540.01152123591	33.393927621652
16	84812	2734.34753627349	830.16994449685
16	90529	2919.0557773925	1208.24683393
16	96451	3122.24822381262	268.47298803349
16	101910	3297.93809973616	51.444842868599
16	107861	3492.44469885886	1407.9121691949
17	6790	191.27351814664	658.37960252187
17	11880	365.55201494428	130.8499297619
17	22571	662.49783319803	133.27932532958
17	27486	833.75426600314	222.73445058708
17	32832	1023.07425662643	466.36228967149
17	37843	1200.29475023377	484.55957232456
17	43047	1372.45534968246	432.62445677852
17	50447	1606.56522969932	918.33523292416
17	56571	1795.88498196519	627.66199851757
17	63021	2010.37604187979	219.10243869894
17	68402	2186.26613468436	334.06400491507
17	74361	2373.67388223585	603.4396898299
17	80711	2576.48562232444	1062.5291547836
17	86545	2771.77638456618	94.267862114766
17	92542	2965.4526325052	2070.0432484442
17	97797	3143.18474322878	683.24041515692
17	103522	3331.31616762679	263.2285022352
17	110626	3566.27989747715	158.90349861711
18	6966	194.21384365516	567.24209176517
18	14362	403.08508278579	637.81956879954
18	19388	591.83100988333	174.14538762665
18	27010	824.0539484708	65.889950486535
18	32887	1024.05188048641	436.02192715095
18	37977	1206.16673798608	420.42568763965
18	44527	1412.86347360922	81.682707739946
18	51064	1630.93318017774	341.02704655296
18	57214	1823.1041767136	330.41406289263
18	63498	2017.73102917178	1215.3458891646
18	68856	2196.001971587	736.18950578891
18	74169	2369.41230581096	687.42115273351
18	80012	2565.72688542794	7.9550338456109
18	85402	2747.52281756169	685.22615712386
18	90824	2924.63077205201	294.87024880963
18	97385	3138.28754157406	333.30180929822
18	103576	3332.40986100785	321.03215805008
18	108884	3524.65886070847	538.18681910854
19	7023	195.44829377947	12.709435518411
19	14024	397.96297954137	374.97470861556
19	20293	603.69185422122	1363.054394169
19	25936	806.71357840563	377.83104835795
19	31885	996.11888901398	214.33059570997
19	39535	1234.79005288362	507.01036953542
19	46639	1495.3864304179	151.33211504859
19	52443	1684.25960201938	30.097607586698
19	59139	1885.65819111803	323.25261358164
[...]
27	83769	2708.35134555687	501.43793224378
27	90304	2914.23377404907	253.34153919905
27	95995	3105.42406298848	314.60575313514
27	101432	3288.28770058149	1496.2902939013
27	107318	3480.24581074679	690.02336736355
28	8097	212.85908792611	1759.4372257058
28	13452	391.65106171645	217.01731954345
28	18383	567.28626790288	75.128275407898
28	26250	809.40395721031	125.88236759956
28	33879	1043.68615116086	126.99518802803
28	38903	1217.99825571393	1259.9109124114
28	44178	1404.28726005415	387.50519374535
28	50954	1628.02030939028	145.17699728112
28	56758	1805.664015938	677.57007670792
28	63204	2013.67296917522	953.28209104792
28	70792	2251.1984249296	765.60877302709
28	76114	2431.95903329046	271.83745845929
28	81432	2604.28363715015	688.67759880435
28	86789	2779.55139576059	336.50637773312
28	92276	2960.17366226248	466.01435672908
28	97741	3142.91653969902	564.39807404155
28	103407	3328.49463410494	117.01022185916
28	110975	3592.96127298088	412.46306255132
29	8151	213.0132811945	669.38914070801
29	12840	386.52774737129	2758.5416105206
29	18726	570.61836342719	377.12710103161
29	24309	754.32442931289	285.07036120714
29	33314	1033.73422905177	1741.1237686845
29	39234	1226.7152925901	79.083224003546
29	44713	1418.56511416899	1218.8672518711
29	50848	1624.63316742987	433.21568673778
29	56811	1806.38445569401	149.49802926896
29	62460	1987.06610401197	292.46856724975
29	68137	2167.72885255994	86.210987456086
29	73152	2341.16528120333	289.9815623266
29	79157	2538.17175912128	1221.1055949363
29	85921	2754.17221520611	7.1850290817802
29	91061	2928.28279059104	509.07075055191
29	96191	3117.7506606663	415.44890854138
29	101539	3289.82205481096	9.0415663586696
29	108349	3513.01319905803	252.61766981365
30	8277	214.33716462489	118.93396291749
30	14305	401.86916548954	172.40103876293
30	18852	575.56790871754	22.303047211985
30	23828	747.89808999434	559.32298710643
30	29550	921.76342142153	628.87489985078
30	34815	1095.92151174251	188.40524804399
30	41145	1313.75433930519	49.98805580648
30	47508	1518.9651648857	518.79833512311
30	53140	1695.52093656396	271.38107431541
30	58805	1874.33098843762	988.12514330969
30	64619	2059.73264260336	196.94778956881
30	70739	2250.7235153772	768.98026405612
30	76349	2447.29069862962	709.19543347322
30	81700	2622.21356885028	498.91764450827
30	88656	2860.0468622356	499.88440695345
30	94310	3042.97860192669	1710.4083010821
30	100306	3257.15160072387	824.24382198669
30	106434	3440.02972261319	117.33151167392
31	8382	214.71132729184	4211.8358023193
31	16142	448.10449545283	35.534155197368
31	21722	645.32574170309	174.65734555223
31	28081	848.72567798381	1100.1531620195
31	34123	1068.9407694599	1222.6813448335
31	39968	1274.00091636047	583.49364393868
31	45503	1450.98752525639	588.10019882406
31	51941	1655.64149760422	407.32297705466
31	57827	1840.56062727566	502.26550982991
31	63906	2039.37184686607	341.56424758565
31	69508	2223.80146764522	48.225012138574
31	75416	2405.95535071087	50.251545859138
31	81859	2626.25657550971	301.81641130469
31	87893	2823.31130616987	429.40759699407
31	93718	3014.3601777	4231.7070732504
31	99033	3186.83602063609	210.8132116093
31	104689	3366.76189956502	52.066340095449
32	8487	214.9865690951	248.90740735919
32	12893	386.81587743193	55.282278056554
32	20674	618.6794933508	255.8658343115
32	25827	794.70390675727	554.62423388795
32	32717	1017.82160104348	488.04725695388
32	38265	1211.25803369422	324.42692875476
32	44819	1421.074246795	1014.5254835068
32	50232	1593.04280117304	236.29422784171
32	57104	1817.74011878266	1171.0227309612
32	62917	2009.0526964142	393.64879097215
32	68456	2186.37197000895	395.12855455119
32	73584	2359.97548375635	230.87080708539
32	81238	2587.09956910141	1119.3835223904
32	86736	2778.410074879	249.29990087276
32	93491	3007.42324231988	299.29490752115
32	99087	3188.19562739541	811.41789408894
32	104452	3362.58918617336	239.95973345604
32	111028	3593.85052016565	90.824156877843
33	8722	216.9845088458	518.55559116194
33	13286	389.81933497173	234.8401503822
33	19335	590.18646089153	1102.9178315759
33	26042	807.83714795058	105.72685252089
33	33367	1033.83890706953	28.990455573287
33	41517	1322.5544771959	208.951728443
33	46860	1502.62651289494	765.90441869642
33	52759	1688.44666065219	95.690846749997
33	60919	1948.41519744463	457.62706708201
33	67110	2135.09857895359	514.15766046787
33	73265	2346.31699687516	270.0044851881
33	80404	2570.76431121296	187.00943985885
33	85815	2753.50263584631	13.179668760216
33	92028	2951.94153814728	964.13824659258
33	97045	3135.61952426915	293.48182857492
33	102576	3316.33776758527	1284.4753566246
33	109707	3536.32536513302	106.96371744773
34	8776	217.04634365622	1727.6446967413
34	15598	425.2901600958	183.29725527278
34	19859	597.49590668124	67.970340267071
34	25691	788.42901612023	600.83623640854
34	31383	981.5335119765	1.7341027824043
34	37143	1171.19166145329	68.212490470852
34	43101	1372.8994487087	1648.5686854296
34	48548	1554.77954204663	51.015135144312
34	54527	1737.03945856022	585.35191651459
34	60742	1946.60678943848	421.59716008015
34	66634	2130.26285777211	186.09502304399
34	73959	2367.67323567152	355.01421319325
34	80764	2577.63547006699	285.11834674748
34	86227	2765.24913899877	518.87245056346
34	91971	2950.80056930445	179.78523894066
34	96862	3131.51017374999	205.20962455241
34	102103	3307.61532366492	5.863011299671
34	107263	3479.48234096167	642.79575152856
35	8831	217.51629413144	720.5032665943
35	13843	396.64195086544	411.59891594997
35	19512	592.50879768701	644.4060718144
35	26613	817.49256649951	29.383313102474
35	32531	1014.36535256104	665.02396375899
35	41378	1317.76820077312	947.22221020116
35	48404	1546.03674446825	1346.5926355784
35	53826	1724.07007354469	794.29582155657
35	59860	1918.97310779297	2055.5286466159
35	65838	2114.6620632286	328.18880268561
35	71465	2289.14405608162	1605.8905232949
35	77933	2511.54615353015	157.5235903216
35	85529	2750.90171132223	41.905365034189
35	91782	2948.04112358548	311.45340796343
35	99496	3201.72972018171	901.98489692141
35	105870	3423.59188312897	10.416073075767
36	9077	219.78494149542	572.81103943162
36	13678	395.17094044356	1595.9929838553
36	19091	584.17822460266	699.49174832337
36	24634	759.18351168227	1066.6869639658
36	30088	942.35862463907	434.48942483979
36	37386	1178.85761245093	521.01952053774
36	43641	1380.4823459753	835.40980991648
36	48860	1561.01820075258	221.00306131751
36	54346	1734.46040211443	473.82495247341
36	61923	1975.91371161446	7.0347607358236
36	68624	2193.02394535955	1286.060977848
36	74014	2368.0438171234	126.58592545751
36	79420	2545.40719719759	970.00087373135
36	84259	2724.33003227077	2091.5538555082
36	90879	2924.79496646371	379.71985209695
36	98096	3154.46653777383	810.52365952469
36	104154	3350.03060513809	494.92318588728
36	109903	3541.22848063183	827.37700914654
37	9227	223.24408146556	457.69979197646
37	15232	420.1738712341	681.40934964562
37	21461	634.8311218771	404.34495462637
37	27202	830.14162809022	800.10826741025
37	32236	1009.36015730345	1019.7303158108
37	38551	1213.90591665364	13.264258168766
37	43933	1386.54550122145	117.71758493608
37	49161	1568.75930490823	460.63328782836
37	56134	1777.33260292921	833.99684107091
37	61335	1958.20680668146	1050.1525357311
37	66870	2132.81798827153	229.24318304828
37	73905	2366.83349084168	831.56429652128
37	80246	2569.98685403715	386.08259338762
37	85583	2751.72702688654	329.85270579317
37	91443	2942.86263798192	19.511717028428
37	96509	3123.49069086225	144.52544868912
37	101856	3297.51347891853	2408.9487148122
37	106896	3469.61269094902	180.67553352683
38	9363	229.3619113108	88.075215302118
38	14630	405.01324489359	1198.0931354207
38	19752	595.99163118121	268.31732119504
38	25399	782.10787770245	345.88599055748
38	30734	954.00518705953	285.55602029932
38	36441	1148.22469572473	774.61636896363
38	42397	1349.20742361329	1245.8825827811
38	48044	1540.84602778335	680.59855902364
38	54076	1728.3417992644	91.54065187876
38	59493	1904.163221424	656.09462732754
38	65115	2084.15837521187	558.39331210647
38	71098	2272.38937676826	216.24568404413
38	76682	2471.39848908712	371.0264088033
38	84009	2711.85779532206	334.57405357777
38	89153	2885.82604196788	236.68972531722
38	96343	3119.73511930142	2316.4520411467
38	101732	3295.7356767827	1287.1041256188
38	107373	3480.98468632755	240.52859675345
39	9416	229.8592796732	153.19091255612
39	14863	407.56370097636	1809.697618574
39	21109	626.64745938656	815.2826668488
39	26197	808.93554407008	45.71097370238
39	32055	1005.76145979543	291.42115504825
39	38211	1210.7089224333	554.16393468094
39	44125	1402.93105787488	217.6291396673
39	49533	1582.59496700294	363.55404104446
39	55199	1754.49822400009	38.382773416406
39	59996	1926.21680586087	376.25906043641
39	65697	2108.48040812535	1.5969991634341
39	71232	2281.11872881176	988.72648624654
39	77565	2500.52014886478	763.22272813934
39	83347	2701.1716300009	162.80274627478
39	89910	2908.34168666209	307.04516216343
39	95704	3099.93404717468	5169.1467696685
39	100814	3275.00461153194	141.2812063827
39	107029	3475.31072372636	79.574920900282
40	9520	231.40202017548	588.24321999696
40	14525	404.77806078817	2729.589599245
40	21219	628.48269234322	13.906032278296
40	25989	806.72826561154	1093.6322400846
40	31673	992.78804242226	532.84091177637
40	37269	1173.52953245095	71.22284047221
40	42556	1351.18808025723	131.25745567285
40	49286	1571.10153126132	705.32967291986
40	55087	1750.87874452367	1030.1175998818
40	61656	1969.3744643379	1239.487713759
40	67726	2153.65796391597	1453.4059006598
40	72675	2330.13444607463	934.48190102447
40	78114	2514.19234119546	492.55844986884
40	83185	2691.5217547266	769.77185139095
40	89257	2887.10871283874	111.02622142073
40	94715	3071.98540487585	2544.1243395138
40	102866	3319.51159959947	401.79213061362
40	108239	3507.60452015637	69.636254155862
41	9626	232.80451968529	102.93036027988
41	14986	409.99761095272	736.8406670604
41	23042	684.01511568446	1856.9276196318
41	28987	907.82452863603	38.641182479586
41	35676	1112.59375389229	250.15616393188
41	40208	1284.15952979947	626.05681958743
41	45687	1459.25488767492	166.87418892243
41	51190	1632.92495251357	343.5992259382
41	57703	1832.03122982587	318.5428716395
41	64437	2054.11383780386	1138.1299453662
41	69800	2236.27592275913	1146.8252055627
41	76223	2444.12049733067	913.50588198117
41	82159	2632.66336074408	31.631140606549
41	87428	2804.10436320822	42.343630314954
41	93985	3033.23697194274	1270.7219512266
41	99622	3204.97814525411	157.97504259188
41	105386	3396.13878749164	1151.8773569952
41	110783	3568.09163665921	1348.1762588306
42	9822	241.282823064	69.833396471839
42	15179	419.56599923017	663.87017584003
42	22628	663.41619176197	1948.694267496
42	28027	848.04288448906	1315.936324376
42	33011	1024.79338300973	1006.1893303435
42	39750	1251.90221390357	562.56618257597
42	47340	1511.44075122343	589.00172799985
42	52547	1686.37914613394	132.99134053561
42	58862	1874.73893482377	880.97781403963
42	65006	2075.71524555144	673.19496871463
42	70555	2248.50784160757	520.83868631777
42	78789	2526.55806457301	559.74057013187
42	83824	2709.65073655275	690.56532518134
42	89100	2885.12547957538	1031.7719317831
42	96615	3125.04036083144	164.85152093417
42	102156	3308.68243203272	1210.6517931156
42	108990	3525.75087480498	367.27302299206
43	9984	249.63553634007	465.43011841644
43	15867	439.77081941458	627.87743408311
43	20727	619.05591244148	578.60602681228
43	26957	823.92009741455	786.76941334852
43	32476	1013.9102980942	24.414945389186
43	37519	1189.50314778146	300.53506400337
43	43773	1384.69817313896	3323.6257170619
43	49639	1583.79856063062	666.76651470893
43	55785	1768.37105351951	654.5938556194
43	62356	1985.15693190587	369.10687921513
43	68985	2198.23310353255	186.48100402009
43	75243	2397.06577069722	1231.2912697637
43	80351	2570.74139303372	1868.6240499628
43	85636	2751.88799361523	621.15498357318
43	91328	2936.4024697517	178.71657280413
43	96807	3130.13093267484	527.13742688932
43	102629	3316.75907911523	772.67185552888
43	109230	3529.84631704301	192.22429862329
44	10109	250.8733361505	657.64400195158
44	16917	466.29101285341	237.35855754164
44	21953	647.31396153805	457.58444279946
44	28519	901.56025665243	925.97313342661
44	34656	1095.10870058528	926.25735139466
44	40576	1294.86038456476	603.40527934057
44	46133	1478.47855014073	320.4193113548
44	52200	1663.30476176902	830.03111658242
44	58067	1851.51581196932	1114.7718423527
44	64037	2042.04884762615	1925.2956498436
44	69344	2217.60526644171	103.69581308747
44	74957	2392.40003710607	778.41808444368
44	81184	2586.63151648895	526.28068534445
44	86123	2762.76809108016	322.40353907058
44	91916	2950.53005567191	152.82069869742
44	97209	3137.28759018169	363.63032102187
44	102338	3312.59947836405	165.71782576939
44	107617	3485.68247818771	1158.2271867039
45	10352	255.56482435142	412.70018845834
45	16476	451.02572936241	629.55682761792
45	23173	699.12527493375	727.38372164165
45	28572	902.48348927101	980.38282438421
45	34254	1076.06519533842	61.82492680771
45	39859	1261.29022730056	689.40171816416
45	45259	1435.02307506204	348.69888496541
45	50718	1618.69344301279	219.62468576
45	56518	1794.44898076351	537.26549005206
45	62102	1978.27603623791	35.41714865663
45	69855	2237.59196695326	371.00157334901
45	75543	2410.17308124939	234.62183856766
45	81076	2583.95620213056	42.820244364971
45	86357	2768.27378409118	332.80873596619
45	92329	2961.3381622456	921.22872884566
45	97154	3136.93039813234	292.94672826513
45	103061	3324.2111521864	671.22035082635
45	107973	3500.83469417562	41.868132129443
46	10543	261.89913383017	1106.397110155
46	17082	480.69704205286	76.059855955051
46	22100	655.54766414329	344.30979944618
46	28802	905.0762550159	2580.7525795797
46	34363	1087.70942634458	383.34624177353
46	40336	1288.49300698439	315.84960080257
46	46005	1474.67644264939	829.81285001646
46	52706	1688.3050973249	282.44198316256
46	58622	1870.88363682943	177.81092817828
46	64300	2047.90841553028	30.824397734729
46	69455	2223.51528600486	64.787646382483
46	75765	2424.22184196981	2527.0220717769
46	81541	2616.02301251462	432.77793021258
46	87064	2792.83004140034	198.02736848803
46	92489	2965.16408359599	89.380132912081
46	98283	3162.12121777708	810.24553831899
46	104398	3361.45665948272	625.80370542228
46	109467	3532.98062545077	464.90160342508
47	10668	264.73039012413	456.23111047495
47	17029	479.80715568153	984.21590612179
47	22927	668.87736959057	1187.8351122713
47	28407	875.35082275109	401.52399175892
47	34416	1089.19712656283	294.56624159592
47	42338	1347.84531462625	223.54715712655
47	47663	1520.88320407249	54.020242577469
47	53493	1721.09968061559	1116.660707384
47	61170	1953.56336330851	569.86076307793
47	67673	2153.6284751163	1391.8870026306
47	72802	2332.96664185661	295.4745262566
47	77805	2507.25618204191	45.758850129325
47	83071	2684.19930858452	112.75191930208
47	88981	2878.64428168069	14.177847007514
47	94553	3063.36763567409	116.56945593787
47	100566	3261.00062632539	353.31982635207
47	106113	3433.00302554948	113.442364829
48	10884	268.33914961061	167.29258045529
48	16089	447.83197235718	207.83493503611
48	20887	621.82644760298	525.30895923701
48	26847	821.50042150578	1271.1953387553
48	32293	1010.64285282272	372.11162451002
48	39181	1226.62511309805	1507.2801849436
48	45313	1436.15212961292	603.45414602049
48	51324	1635.96506993872	154.14356030973
48	56998	1813.74826108479	195.1027057865
48	62864	2008.44798083068	239.42533909138
48	69695	2232.71748996998	688.98809851049
48	76402	2447.51214368374	221.0134746423
48	81805	2625.78738271682	341.10264034386
48	87482	2804.47438678219	891.19243496615
48	95062	3084.14308870817	117.33907843044
48	102469	3314.56188305193	47.708493379008
48	107749	3488.68660417534	612.47440419885
49	10938	268.47592219987	765.06290555688
49	16423	451.01229191298	3978.275350799
49	21775	645.39000257981	682.09875629105
49	28251	870.71805345084	180.5295886628
49	33989	1048.40573328879	57.124089239608
49	39077	1226.20480165346	303.65480658726
49	44472	1411.53102122447	135.36296451755
49	50029	1586.83459206398	130.50175874618
49	55551	1765.65690556988	251.02946542509
49	60638	1945.79249203699	6.4690922447252
49	66291	2123.72216429176	1011.2201685829
49	71913	2295.78245191586	552.02275052669
49	76735	2472.29630050583	874.36945962044
49	82506	2647.27596070253	328.94127667549
49	88242	2838.12513792776	78.96431551433
49	93848	3017.64889297174	904.01968642547
49	99275	3192.61228917217	467.99942900807
49	105013	3379.86424223813	267.72918892764
49	110386	3552.91027433455	724.0751550479
50	11134	284.17079956405	533.56123807228
50	16783	461.11951279205	92.119752440274
50	21333	632.44184779825	418.33636717308
50	29258	914.60131124241	50.686261196688
50	34601	1094.72471840481	605.71941274568
50	42678	1359.45858891429	39.822240932998
50	48672	1556.65646986477	1285.2293349614
50	54188	1731.74799838335	216.84929162998
50	59619	1907.52027831494	307.11246211062
50	65246	2092.84731778792	318.90803942231
50	71341	2286.99678505259	134.50230874144
50	77434	2490.9239799806	958.67267505843
50	84622	2730.95874068456	143.29722344053
50	90582	2919.34124078298	1243.10022346
50	97968	3149.96526912136	68.75352473092
50	103891	3337.49269338892	3.1869099132178
50	109958	3542.75267294814	1173.7163229675
51	11187	284.54482249267	329.84085641797
51	16679	459.17098110551	47.315977429442
51	22458	660.48696385129	351.11033883515
51	27683	840.00786650639	423.18963917802
51	33420	1034.80177546966	1114.0729017398
51	39024	1224.8337268764	98.95072295323
51	45147	1431.21483617626	95.798382084219
51	51452	1638.37969072681	624.38612408856
51	58196	1856.41669547545	31.265631332578
51	63798	2036.04092599182	409.84650502061
51	69237	2212.01837747999	1346.5402832792
51	75187	2395.83699734347	499.05061229052
51	80193	2569.58665081171	95.14046766079
51	88017	2825.91974017773	423.96732565523
51	93330	3005.54318495168	518.27605844457
51	98921	3183.69680871718	1962.7470890897
51	105997	3425.91648280292	464.64415965461
52	11374	291.10800900806	466.90162102164
52	17560	548.35425334409	427.93971966265
52	23720	747.39798879689	868.1447088525
52	29391	919.67680412684	903.91902099682
52	35430	1103.72634956578	61.365151334037
52	40852	1305.90366284793	600.81813326666
52	46807	1502.44136609943	457.33598515153
52	54473	1736.20041438567	516.16362065085
52	59756	1916.71976535909	307.08170537829
52	66236	2123.03294544256	549.7360479423
52	71852	2294.4381589025	706.90134964476
52	77050	2478.60052668865	1307.0114675576
52	86952	2784.29894154062	329.18893046447
52	93610	3011.56951606037	3.2393842902013
52	99974	3220.74768877535	626.8926823564
52	105522	3408.5699709396	25.761400502152
52	111187	3597.6113792373	2117.9001087361
53	11483	304.25249052178	96.333556269325
53	17287	482.90564758642	685.12190178634
53	22153	657.08576672602	904.03610994
53	28696	903.79440040228	607.59154379475
53	34709	1095.18478571296	469.88968879143
53	40687	1300.07740090286	114.05199307607
53	46355	1485.81678514682	1175.6580694328
53	52068	1658.78733344583	1258.643744164
53	57953	1843.93887297883	457.88865508947
53	63694	2034.13433894819	693.10707361409
53	70286	2243.85520614232	475.9353445858
53	76915	2475.46828092822	111.51570703212
53	82617	2663.16407777234	2159.3893151472
53	88772	2875.70517708499	907.71475201576
53	94662	3070.83274327142	40.930242423077
53	101210	3283.38474328042	668.91633981265
53	108508	3514.74497015386	157.90474428374
54	11592	347.90569838168	113.41916945127
54	17429	527.80611855381	195.18974463289
54	24472	757.11640928968	324.71934813876
54	31247	974.47178899195	549.37396195915
54	36682	1162.11933689767	443.61306281882
54	42890	1371.3370710918	141.88288464848
54	48222	1543.47192169636	1704.4773131387
54	53546	1721.60507586704	412.89882962754
54	61818	1975.20283734642	49.808797177168
54	67445	2150.9914896686	1163.5713749424
54	72437	2322.98827130997	41.487739340285
54	79029	2533.75795437228	637.18414714331
54	83582	2705.39710548516	566.84107789621
54	89362	2888.10490787947	1083.1298217581
54	95942	3104.94029085711	65.91446329987
54	103115	3324.28246249298	1934.1644140726
54	109647	3535.18271281752	53.657165210647

