version 3
run N50-9-20260518-02:26:44-159863
attr configname N50
attr datetime 20260518-02:26:44
attr datetimef 20260518-022644
attr experiment N50
attr inifile omnetpp.ini
attr iterationvars "$0=\"avg\""
attr iterationvarsd avg
attr iterationvarsf avg-
attr measurement "$0=\"avg\""
attr network test2.LoRaNetworkTest
attr processid 159863
attr repetition 9
attr replication #9
attr resultdir results
attr runnumber 9
attr seedset 9
config extends General
config **.numPatients 50
config network test2.LoRaNetworkTest
config sim-time-limit 1h
config warmup-period 60s
config simtime-resolution -11
config repeat 30
config rng-class cMersenneTwister
config record-eventlog false
config **.numPatients 20
config **.HospitalServer.app[0].queueLength:vector.vector-recording true
config **.HospitalServer.app[0].urgentWaitTime:vector.vector-recording true
config **.HospitalServer.app[0].normalWaitTime:vector.vector-recording true
config **.HospitalServer.app[0].urgentEndToEndDelay:vector.vector-recording true
config **.HospitalServer.app[0].normalEndToEndDelay:vector.vector-recording true
config **.loRaNodes[*].app[0].emergencyVariate:vector.vector-recording true
config **.vector-recording false
config **.loRaNodes[0].**.initialX "300m + uniform(-10m, 10m)"
config **.loRaNodes[0].**.initialY "250m + uniform(-8m, 8m)"
config **.loRaNodes[1].**.initialX "450m + uniform(-10m, 10m)"
config **.loRaNodes[1].**.initialY "250m + uniform(-8m, 8m)"
config **.loRaNodes[2].**.initialX "600m + uniform(-10m, 10m)"
config **.loRaNodes[2].**.initialY "250m + uniform(-8m, 8m)"
config **.loRaNodes[3].**.initialX "750m + uniform(-10m, 10m)"
config **.loRaNodes[3].**.initialY "250m + uniform(-8m, 8m)"
config **.loRaNodes[4].**.initialX "900m + uniform(-10m, 10m)"
config **.loRaNodes[4].**.initialY "250m + uniform(-8m, 8m)"
config **.loRaNodes[5].**.initialX "1050m + uniform(-10m, 10m)"
config **.loRaNodes[5].**.initialY "250m + uniform(-8m, 8m)"
config **.loRaNodes[6].**.initialX "1200m + uniform(-10m, 10m)"
config **.loRaNodes[6].**.initialY "250m + uniform(-8m, 8m)"
config **.loRaNodes[7].**.initialX "1350m + uniform(-10m, 10m)"
config **.loRaNodes[7].**.initialY "250m + uniform(-8m, 8m)"
config **.loRaNodes[8].**.initialX "1500m + uniform(-10m, 10m)"
config **.loRaNodes[8].**.initialY "250m + uniform(-8m, 8m)"
config **.loRaNodes[9].**.initialX "1650m + uniform(-10m, 10m)"
config **.loRaNodes[9].**.initialY "250m + uniform(-8m, 8m)"
config **.loRaNodes[10].**.initialX "300m + uniform(-10m, 10m)"
config **.loRaNodes[10].**.initialY "370m + uniform(-8m, 8m)"
config **.loRaNodes[11].**.initialX "450m + uniform(-10m, 10m)"
config **.loRaNodes[11].**.initialY "370m + uniform(-8m, 8m)"
config **.loRaNodes[12].**.initialX "600m + uniform(-10m, 10m)"
config **.loRaNodes[12].**.initialY "370m + uniform(-8m, 8m)"
config **.loRaNodes[13].**.initialX "750m + uniform(-10m, 10m)"
config **.loRaNodes[13].**.initialY "370m + uniform(-8m, 8m)"
config **.loRaNodes[14].**.initialX "900m + uniform(-10m, 10m)"
config **.loRaNodes[14].**.initialY "370m + uniform(-8m, 8m)"
config **.loRaNodes[15].**.initialX "1050m + uniform(-10m, 10m)"
config **.loRaNodes[15].**.initialY "370m + uniform(-8m, 8m)"
config **.loRaNodes[16].**.initialX "1200m + uniform(-10m, 10m)"
config **.loRaNodes[16].**.initialY "370m + uniform(-8m, 8m)"
config **.loRaNodes[17].**.initialX "1350m + uniform(-10m, 10m)"
config **.loRaNodes[17].**.initialY "370m + uniform(-8m, 8m)"
config **.loRaNodes[18].**.initialX "1500m + uniform(-10m, 10m)"
config **.loRaNodes[18].**.initialY "370m + uniform(-8m, 8m)"
config **.loRaNodes[19].**.initialX "1650m + uniform(-10m, 10m)"
config **.loRaNodes[19].**.initialY "370m + uniform(-8m, 8m)"
config **.loRaNodes[20].**.initialX "300m + uniform(-10m, 10m)"
config **.loRaNodes[20].**.initialY "490m + uniform(-8m, 8m)"
config **.loRaNodes[21].**.initialX "450m + uniform(-10m, 10m)"
config **.loRaNodes[21].**.initialY "490m + uniform(-8m, 8m)"
config **.loRaNodes[22].**.initialX "600m + uniform(-10m, 10m)"
config **.loRaNodes[22].**.initialY "490m + uniform(-8m, 8m)"
config **.loRaNodes[23].**.initialX "750m + uniform(-10m, 10m)"
config **.loRaNodes[23].**.initialY "490m + uniform(-8m, 8m)"
config **.loRaNodes[24].**.initialX "900m + uniform(-10m, 10m)"
config **.loRaNodes[24].**.initialY "490m + uniform(-8m, 8m)"
config **.loRaNodes[25].**.initialX "1050m + uniform(-10m, 10m)"
config **.loRaNodes[25].**.initialY "490m + uniform(-8m, 8m)"
config **.loRaNodes[26].**.initialX "1200m + uniform(-10m, 10m)"
config **.loRaNodes[26].**.initialY "490m + uniform(-8m, 8m)"
config **.loRaNodes[27].**.initialX "1350m + uniform(-10m, 10m)"
config **.loRaNodes[27].**.initialY "490m + uniform(-8m, 8m)"
config **.loRaNodes[28].**.initialX "1500m + uniform(-10m, 10m)"
config **.loRaNodes[28].**.initialY "490m + uniform(-8m, 8m)"
config **.loRaNodes[29].**.initialX "1650m + uniform(-10m, 10m)"
config **.loRaNodes[29].**.initialY "490m + uniform(-8m, 8m)"
config **.loRaNodes[30].**.initialX "300m + uniform(-10m, 10m)"
config **.loRaNodes[30].**.initialY "610m + uniform(-8m, 8m)"
config **.loRaNodes[31].**.initialX "450m + uniform(-10m, 10m)"
config **.loRaNodes[31].**.initialY "610m + uniform(-8m, 8m)"
config **.loRaNodes[32].**.initialX "600m + uniform(-10m, 10m)"
config **.loRaNodes[32].**.initialY "610m + uniform(-8m, 8m)"
config **.loRaNodes[33].**.initialX "750m + uniform(-10m, 10m)"
config **.loRaNodes[33].**.initialY "610m + uniform(-8m, 8m)"
config **.loRaNodes[34].**.initialX "900m + uniform(-10m, 10m)"
config **.loRaNodes[34].**.initialY "610m + uniform(-8m, 8m)"
config **.loRaNodes[35].**.initialX "1050m + uniform(-10m, 10m)"
config **.loRaNodes[35].**.initialY "610m + uniform(-8m, 8m)"
config **.loRaNodes[36].**.initialX "1200m + uniform(-10m, 10m)"
config **.loRaNodes[36].**.initialY "610m + uniform(-8m, 8m)"
config **.loRaNodes[37].**.initialX "1350m + uniform(-10m, 10m)"
config **.loRaNodes[37].**.initialY "610m + uniform(-8m, 8m)"
config **.loRaNodes[38].**.initialX "1500m + uniform(-10m, 10m)"
config **.loRaNodes[38].**.initialY "610m + uniform(-8m, 8m)"
config **.loRaNodes[39].**.initialX "1650m + uniform(-10m, 10m)"
config **.loRaNodes[39].**.initialY "610m + uniform(-8m, 8m)"
config **.loRaNodes[40].**.initialX "300m + uniform(-10m, 10m)"
config **.loRaNodes[40].**.initialY "730m + uniform(-8m, 8m)"
config **.loRaNodes[41].**.initialX "450m + uniform(-10m, 10m)"
config **.loRaNodes[41].**.initialY "730m + uniform(-8m, 8m)"
config **.loRaNodes[42].**.initialX "600m + uniform(-10m, 10m)"
config **.loRaNodes[42].**.initialY "730m + uniform(-8m, 8m)"
config **.loRaNodes[43].**.initialX "750m + uniform(-10m, 10m)"
config **.loRaNodes[43].**.initialY "730m + uniform(-8m, 8m)"
config **.loRaNodes[44].**.initialX "900m + uniform(-10m, 10m)"
config **.loRaNodes[44].**.initialY "730m + uniform(-8m, 8m)"
config **.loRaNodes[45].**.initialX "1050m + uniform(-10m, 10m)"
config **.loRaNodes[45].**.initialY "730m + uniform(-8m, 8m)"
config **.loRaNodes[46].**.initialX "1200m + uniform(-10m, 10m)"
config **.loRaNodes[46].**.initialY "730m + uniform(-8m, 8m)"
config **.loRaNodes[47].**.initialX "1350m + uniform(-10m, 10m)"
config **.loRaNodes[47].**.initialY "730m + uniform(-8m, 8m)"
config **.loRaNodes[48].**.initialX "1500m + uniform(-10m, 10m)"
config **.loRaNodes[48].**.initialY "730m + uniform(-8m, 8m)"
config **.loRaNodes[49].**.initialX "1650m + uniform(-10m, 10m)"
config **.loRaNodes[49].**.initialY "730m + uniform(-8m, 8m)"
config **.loRaNodes[50].**.initialX "300m + uniform(-10m, 10m)"
config **.loRaNodes[50].**.initialY "850m + uniform(-8m, 8m)"
config **.loRaNodes[51].**.initialX "450m + uniform(-10m, 10m)"
config **.loRaNodes[51].**.initialY "850m + uniform(-8m, 8m)"
config **.loRaNodes[52].**.initialX "600m + uniform(-10m, 10m)"
config **.loRaNodes[52].**.initialY "850m + uniform(-8m, 8m)"
config **.loRaNodes[53].**.initialX "750m + uniform(-10m, 10m)"
config **.loRaNodes[53].**.initialY "850m + uniform(-8m, 8m)"
config **.loRaNodes[54].**.initialX "900m + uniform(-10m, 10m)"
config **.loRaNodes[54].**.initialY "850m + uniform(-8m, 8m)"
config **.loRaNodes[55].**.initialX "1050m + uniform(-10m, 10m)"
config **.loRaNodes[55].**.initialY "850m + uniform(-8m, 8m)"
config **.loRaNodes[56].**.initialX "1200m + uniform(-10m, 10m)"
config **.loRaNodes[56].**.initialY "850m + uniform(-8m, 8m)"
config **.loRaNodes[57].**.initialX "1350m + uniform(-10m, 10m)"
config **.loRaNodes[57].**.initialY "850m + uniform(-8m, 8m)"
config **.loRaNodes[58].**.initialX "1500m + uniform(-10m, 10m)"
config **.loRaNodes[58].**.initialY "850m + uniform(-8m, 8m)"
config **.loRaNodes[59].**.initialX "1650m + uniform(-10m, 10m)"
config **.loRaNodes[59].**.initialY "850m + uniform(-8m, 8m)"
config **.loRaNodes[60].**.initialX "300m + uniform(-10m, 10m)"
config **.loRaNodes[60].**.initialY "970m + uniform(-8m, 8m)"
config **.loRaNodes[61].**.initialX "450m + uniform(-10m, 10m)"
config **.loRaNodes[61].**.initialY "970m + uniform(-8m, 8m)"
config **.loRaNodes[62].**.initialX "600m + uniform(-10m, 10m)"
config **.loRaNodes[62].**.initialY "970m + uniform(-8m, 8m)"
config **.loRaNodes[63].**.initialX "750m + uniform(-10m, 10m)"
config **.loRaNodes[63].**.initialY "970m + uniform(-8m, 8m)"
config **.loRaNodes[64].**.initialX "900m + uniform(-10m, 10m)"
config **.loRaNodes[64].**.initialY "970m + uniform(-8m, 8m)"
config **.loRaNodes[65].**.initialX "1050m + uniform(-10m, 10m)"
config **.loRaNodes[65].**.initialY "970m + uniform(-8m, 8m)"
config **.loRaNodes[66].**.initialX "1200m + uniform(-10m, 10m)"
config **.loRaNodes[66].**.initialY "970m + uniform(-8m, 8m)"
config **.loRaNodes[67].**.initialX "1350m + uniform(-10m, 10m)"
config **.loRaNodes[67].**.initialY "970m + uniform(-8m, 8m)"
config **.loRaNodes[68].**.initialX "1500m + uniform(-10m, 10m)"
config **.loRaNodes[68].**.initialY "970m + uniform(-8m, 8m)"
config **.loRaNodes[69].**.initialX "1650m + uniform(-10m, 10m)"
config **.loRaNodes[69].**.initialY "970m + uniform(-8m, 8m)"
config **.loRaNodes[70].**.initialX "300m + uniform(-10m, 10m)"
config **.loRaNodes[70].**.initialY "1090m + uniform(-8m, 8m)"
config **.loRaNodes[71].**.initialX "450m + uniform(-10m, 10m)"
config **.loRaNodes[71].**.initialY "1090m + uniform(-8m, 8m)"
config **.loRaNodes[72].**.initialX "600m + uniform(-10m, 10m)"
config **.loRaNodes[72].**.initialY "1090m + uniform(-8m, 8m)"
config **.loRaNodes[73].**.initialX "750m + uniform(-10m, 10m)"
config **.loRaNodes[73].**.initialY "1090m + uniform(-8m, 8m)"
config **.loRaNodes[74].**.initialX "900m + uniform(-10m, 10m)"
config **.loRaNodes[74].**.initialY "1090m + uniform(-8m, 8m)"
config **.HospitalServer.numApps 1
config **.HospitalServer.app[0].typename HospitalServerApp
config **.HospitalServer.app[0].destPort 2000
config **.HospitalServer.app[0].localPort 1000
config **.HospitalServer.app[0].adrMethod "\"avg\""
config **.HospitalServer.**.evaluateADRinServer true
config **.HospitalServer.app[0].queueSize 50
config **.HospitalServer.app[0].expo_rate_lambda 0.83
config **.loRaGateway.numUdpApps 1
config **.loRaGateway.packetForwarder.localPort 2000
config **.loRaGateway.packetForwarder.destPort 1000
config **.loRaGateway.packetForwarder.destAddresses "\"HospitalServer\""
config **.loRaGateway.**.initFromDisplayString false
config **.loRaGateway.**.initialX 544.00m
config **.loRaGateway.**.initialY 544.00m
config **.loRaNodes[*].numApps 1
config **.loRaNodes[*].app[0].typename PatientSensorApp
config **.loRaNodes[*].app[0].expo_rate_lambda 0.00175
config **.loRaNodes[*].app[0].emergencyThreshold 50
config **.loRaNodes[*].**.timeToFirstPacket exponential(24s)
config **.loRaNodes[*].**.timeToNextPacket exponential(24s)
config **.loRaNodes[*].**.numberOfPacketsToSend 0
config **.loRaNodes[*].**initialLoRaSF 12
config **.loRaNodes[*].**initialLoRaTP 14dBm
config **.loRaNodes[*].**initialLoRaBW "125 kHz"
config **.loRaNodes[*].**initialLoRaCR 4
config **.loRaNodes[*].**.initFromDisplayString false
config **.loRaNodes[*].**.evaluateADRinNode true
config **.loRaNodes[*].LoRaNic.radio.energyConsumer.typename LoRaEnergyConsumer
config **.loRaNodes[*].**.energySourceModule "\"^.IdealEpEnergyStorage\""
config **.loRaNodes[*].LoRaNic.radio.energyConsumer.configFile "xmldoc(\"energyConsumptionParam.xml\")"
config **.maxTransmissionDuration 4s
config **.energyDetection -110dBm
config **.radio.radioMediumModule "\"LoRaMedium\""
config **.minInterferenceTime 0s
config **.constraintAreaMinX 0m
config **.constraintAreaMinY 0m
config **.constraintAreaMinZ 0m
config **.constraintAreaMaxZ 0m
config **.constraintAreaMaxX 3000.0m
config **.constraintAreaMaxY 3000.0m

vector 0 LoRaNetworkTest.loRaNodes[37].app[0] emergencyVariate:vector ETV
attr recordingmode vector
attr title "Exponential variate samples"
vector 1 LoRaNetworkTest.loRaNodes[15].app[0] emergencyVariate:vector ETV
attr recordingmode vector
attr title "Exponential variate samples"
vector 2 LoRaNetworkTest.loRaNodes[12].app[0] emergencyVariate:vector ETV
attr recordingmode vector
attr title "Exponential variate samples"
vector 3 LoRaNetworkTest.HospitalServer.app[0] queueLength:vector ETV
attr recordingmode vector
attr title "Total queue length"
vector 4 LoRaNetworkTest.HospitalServer.app[0] normalWaitTime:vector ETV
attr recordingmode vector
attr title "Normal wait time (s)"
vector 5 LoRaNetworkTest.HospitalServer.app[0] normalEndToEndDelay:vector ETV
attr recordingmode vector
attr title "Normal end-to-end delay (s)"
vector 6 LoRaNetworkTest.loRaNodes[40].app[0] emergencyVariate:vector ETV
attr recordingmode vector
attr title "Exponential variate samples"
vector 7 LoRaNetworkTest.loRaNodes[21].app[0] emergencyVariate:vector ETV
attr recordingmode vector
attr title "Exponential variate samples"
vector 8 LoRaNetworkTest.loRaNodes[11].app[0] emergencyVariate:vector ETV
attr recordingmode vector
attr title "Exponential variate samples"
vector 9 LoRaNetworkTest.loRaNodes[35].app[0] emergencyVariate:vector ETV
attr recordingmode vector
attr title "Exponential variate samples"
vector 10 LoRaNetworkTest.loRaNodes[24].app[0] emergencyVariate:vector ETV
attr recordingmode vector
attr title "Exponential variate samples"
vector 11 LoRaNetworkTest.loRaNodes[46].app[0] emergencyVariate:vector ETV
attr recordingmode vector
attr title "Exponential variate samples"
vector 12 LoRaNetworkTest.loRaNodes[13].app[0] emergencyVariate:vector ETV
attr recordingmode vector
attr title "Exponential variate samples"
vector 13 LoRaNetworkTest.loRaNodes[14].app[0] emergencyVariate:vector ETV
attr recordingmode vector
attr title "Exponential variate samples"
vector 14 LoRaNetworkTest.loRaNodes[7].app[0] emergencyVariate:vector ETV
attr recordingmode vector
attr title "Exponential variate samples"
vector 15 LoRaNetworkTest.loRaNodes[45].app[0] emergencyVariate:vector ETV
attr recordingmode vector
attr title "Exponential variate samples"
vector 16 LoRaNetworkTest.loRaNodes[2].app[0] emergencyVariate:vector ETV
attr recordingmode vector
attr title "Exponential variate samples"
vector 17 LoRaNetworkTest.loRaNodes[18].app[0] emergencyVariate:vector ETV
attr recordingmode vector
attr title "Exponential variate samples"
vector 18 LoRaNetworkTest.HospitalServer.app[0] urgentWaitTime:vector ETV
attr recordingmode vector
attr title "Urgent wait time (s)"
vector 19 LoRaNetworkTest.HospitalServer.app[0] urgentEndToEndDelay:vector ETV
attr recordingmode vector
attr title "Urgent end-to-end delay (s)"
vector 20 LoRaNetworkTest.loRaNodes[5].app[0] emergencyVariate:vector ETV
attr recordingmode vector
attr title "Exponential variate samples"
vector 21 LoRaNetworkTest.loRaNodes[3].app[0] emergencyVariate:vector ETV
attr recordingmode vector
attr title "Exponential variate samples"
vector 22 LoRaNetworkTest.loRaNodes[27].app[0] emergencyVariate:vector ETV
attr recordingmode vector
attr title "Exponential variate samples"
vector 23 LoRaNetworkTest.loRaNodes[19].app[0] emergencyVariate:vector ETV
attr recordingmode vector
attr title "Exponential variate samples"
vector 24 LoRaNetworkTest.loRaNodes[9].app[0] emergencyVariate:vector ETV
attr recordingmode vector
attr title "Exponential variate samples"
vector 25 LoRaNetworkTest.loRaNodes[26].app[0] emergencyVariate:vector ETV
attr recordingmode vector
attr title "Exponential variate samples"
vector 26 LoRaNetworkTest.loRaNodes[16].app[0] emergencyVariate:vector ETV
attr recordingmode vector
attr title "Exponential variate samples"
vector 27 LoRaNetworkTest.loRaNodes[20].app[0] emergencyVariate:vector ETV
attr recordingmode vector
attr title "Exponential variate samples"
vector 28 LoRaNetworkTest.loRaNodes[34].app[0] emergencyVariate:vector ETV
attr recordingmode vector
attr title "Exponential variate samples"
vector 29 LoRaNetworkTest.loRaNodes[48].app[0] emergencyVariate:vector ETV
attr recordingmode vector
attr title "Exponential variate samples"
vector 30 LoRaNetworkTest.loRaNodes[22].app[0] emergencyVariate:vector ETV
attr recordingmode vector
attr title "Exponential variate samples"
vector 31 LoRaNetworkTest.loRaNodes[17].app[0] emergencyVariate:vector ETV
attr recordingmode vector
attr title "Exponential variate samples"
vector 32 LoRaNetworkTest.loRaNodes[43].app[0] emergencyVariate:vector ETV
attr recordingmode vector
attr title "Exponential variate samples"
vector 33 LoRaNetworkTest.loRaNodes[10].app[0] emergencyVariate:vector ETV
attr recordingmode vector
attr title "Exponential variate samples"
vector 34 LoRaNetworkTest.loRaNodes[39].app[0] emergencyVariate:vector ETV
attr recordingmode vector
attr title "Exponential variate samples"
vector 35 LoRaNetworkTest.loRaNodes[1].app[0] emergencyVariate:vector ETV
attr recordingmode vector
attr title "Exponential variate samples"
vector 36 LoRaNetworkTest.loRaNodes[8].app[0] emergencyVariate:vector ETV
attr recordingmode vector
attr title "Exponential variate samples"
vector 37 LoRaNetworkTest.loRaNodes[23].app[0] emergencyVariate:vector ETV
attr recordingmode vector
attr title "Exponential variate samples"
vector 38 LoRaNetworkTest.loRaNodes[47].app[0] emergencyVariate:vector ETV
attr recordingmode vector
attr title "Exponential variate samples"
vector 39 LoRaNetworkTest.loRaNodes[28].app[0] emergencyVariate:vector ETV
attr recordingmode vector
attr title "Exponential variate samples"
vector 40 LoRaNetworkTest.loRaNodes[44].app[0] emergencyVariate:vector ETV
attr recordingmode vector
attr title "Exponential variate samples"
vector 41 LoRaNetworkTest.loRaNodes[31].app[0] emergencyVariate:vector ETV
attr recordingmode vector
attr title "Exponential variate samples"
vector 42 LoRaNetworkTest.loRaNodes[6].app[0] emergencyVariate:vector ETV
attr recordingmode vector
attr title "Exponential variate samples"
vector 43 LoRaNetworkTest.loRaNodes[41].app[0] emergencyVariate:vector ETV
attr recordingmode vector
attr title "Exponential variate samples"
vector 44 LoRaNetworkTest.loRaNodes[36].app[0] emergencyVariate:vector ETV
attr recordingmode vector
attr title "Exponential variate samples"
vector 45 LoRaNetworkTest.loRaNodes[25].app[0] emergencyVariate:vector ETV
attr recordingmode vector
attr title "Exponential variate samples"
vector 46 LoRaNetworkTest.loRaNodes[29].app[0] emergencyVariate:vector ETV
attr recordingmode vector
attr title "Exponential variate samples"
vector 47 LoRaNetworkTest.loRaNodes[4].app[0] emergencyVariate:vector ETV
attr recordingmode vector
attr title "Exponential variate samples"
vector 48 LoRaNetworkTest.loRaNodes[49].app[0] emergencyVariate:vector ETV
attr recordingmode vector
attr title "Exponential variate samples"
vector 49 LoRaNetworkTest.loRaNodes[33].app[0] emergencyVariate:vector ETV
attr recordingmode vector
attr title "Exponential variate samples"
vector 50 LoRaNetworkTest.loRaNodes[0].app[0] emergencyVariate:vector ETV
attr recordingmode vector
attr title "Exponential variate samples"
vector 51 LoRaNetworkTest.loRaNodes[38].app[0] emergencyVariate:vector ETV
attr recordingmode vector
attr title "Exponential variate samples"
vector 52 LoRaNetworkTest.loRaNodes[42].app[0] emergencyVariate:vector ETV
attr recordingmode vector
attr title "Exponential variate samples"
vector 53 LoRaNetworkTest.loRaNodes[30].app[0] emergencyVariate:vector ETV
attr recordingmode vector
attr title "Exponential variate samples"
vector 54 LoRaNetworkTest.loRaNodes[32].app[0] emergencyVariate:vector ETV
attr recordingmode vector
attr title "Exponential variate samples"
0	5190	67.27148706224	577.76321165684
0	9816	245.44294828637	6698.8527680051
0	15302	436.76028538475	735.30999374954
0	20227	612.33619825673	358.2326390932
0	26659	823.98212244614	177.5892141558
0	31841	1002.27530840822	343.67527537902
0	37517	1181.89613754149	824.44671325587
0	43983	1382.80639080803	263.4406971397
0	50752	1604.92286015466	339.45312981226
0	59082	1869.77049215998	372.75347552279
0	64237	2048.32080529558	3190.3424276524
0	69565	2221.5526748425	413.07475761655
0	75617	2414.3906956557	1644.0323635918
0	80472	2585.97304947675	143.55368133747
0	87949	2815.97982953385	2159.1962462775
0	94960	3055.07037296542	372.9664019892
0	101003	3260.13680680824	1216.5907894446
0	106561	3440.27593953905	368.9417823176
1	5299	79.07975732768	1629.0816199047
1	11455	318.93424979157	4072.2776662672
1	17317	492.56080728721	1859.32675581
1	22973	689.90036688129	1051.0315192507
1	29177	894.08383510417	1443.6765793572
1	35250	1093.85722542895	165.48182041901
1	41192	1298.74416897899	110.97906181797
1	46854	1472.51139578629	624.08370943334
1	53567	1693.34504043995	848.12595457458
1	59135	1870.13458979514	83.434626687679
1	64394	2049.28753901983	641.58935065936
1	69618	2221.59127575893	77.229094076162
1	74887	2404.43778716102	1245.5379106156
1	82539	2645.56393723084	669.47255217934
1	88433	2843.86902831793	486.58625830314
1	94258	3034.5482525012	690.3796002039
1	99718	3212.10075880663	160.03240803669
1	105165	3390.77642105574	341.29288827701
1	110918	3568.32176632309	596.43759943788
2	5408	84.8045971154	392.22569887281
2	10101	261.49138381443	120.40393856583
2	15962	456.01744359257	35.026460676528
2	21256	634.55174551465	323.74461898202
2	26238	819.78944189412	3373.7313819048
2	31554	991.33377098683	484.76316423571
2	38046	1195.09414434009	525.09037677366
2	43312	1366.7651576048	305.29524285659
2	50043	1574.71171366255	59.103033543963
2	55096	1747.18362112114	358.16298163042
2	61244	1935.03298713581	287.51252086292
2	66926	2134.198803611	875.14545077893
2	73570	2362.24192933324	289.39595844518
2	79129	2534.84767229315	362.36984247044
2	84671	2729.18278769483	1141.9981002559
2	90119	2912.68829266122	1332.3277025446
2	96717	3113.71674099063	610.17267679421
2	103173	3328.95679761505	346.85591528422
2	108725	3513.79882705079	56.46889643139
3	5510	86.51672711941	1
3	5510	86.51672711941	0
3	5635	96.26144789703	1
3	5635	96.26144789703	0
3	5767	117.33963062626	1
3	5767	117.33963062626	0
3	6004	186.61789448069	1
3	6004	186.61789448069	0
3	6237	188.68116270843	1
3	6237	188.68116270843	0
3	6470	192.82666143243	1
3	6486	193.8954245142	0
3	6914	196.87276610497	1
3	6914	196.87276610497	0
3	8195	217.15526835001	1
3	8195	217.15526835001	0
3	8544	221.80877849657	1
3	8544	221.80877849657	0
3	9070	228.36849837478	1
3	9070	228.36849837478	0
3	9386	236.23575126804	1
3	9386	236.23575126804	0
3	9492	238.59645841924	1
3	9492	238.59645841924	0
3	9734	244.20409273247	1
3	9734	244.20409273247	0
3	10256	263.20351381844	1
3	10256	263.20351381844	0
3	10510	266.96745233148	1
3	10510	266.96745233148	0
3	10690	271.75182172911	1
3	10690	271.75182172911	0
3	10810	274.54493729003	1
3	10810	274.54493729003	0
3	10938	278.36208689343	1
3	10938	278.36208689343	0
3	11072	294.21553433952	1
3	11072	294.21553433952	0
3	11415	304.64746738802	1
3	11415	304.64746738802	0
3	11714	340.46093002965	1
3	11714	340.46093002965	0
3	11845	360.07454317548	1
3	11845	360.07454317548	0
3	11965	369.41154423542	1
3	11965	369.41154423542	0
3	12190	374.9507870063	1
3	12190	374.9507870063	0
3	12438	379.1046805241	1
3	12438	379.1046805241	0
3	12909	389.76969382575	1
3	12909	389.76969382575	0
3	13515	395.15485933252	1
3	13515	395.15485933252	0
3	14001	407.62387175534	1
3	14001	407.62387175534	0
3	14181	409.99955439063	1
3	14181	409.99955439063	0
3	14406	419.39747574697	1
3	14406	419.39747574697	0
3	14744	423.32091573581	1
3	14744	423.32091573581	0
3	15235	430.94750807356	1
3	15235	430.94750807356	0
3	15698	446.57098783733	1
3	15698	446.57098783733	0
3	15800	448.58722847223	1
3	15800	448.58722847223	0
3	15960	455.09776904017	1
3	15960	455.09776904017	0
3	16067	457.72957359658	1
3	16091	458.82903986546	0
3	16250	468.16459495785	1
3	16250	468.16459495785	0
3	16366	470.42844951251	1
3	16366	470.42844951251	0
3	16552	474.29921190671	1
3	16552	474.29921190671	0
3	16722	477.80511037925	1
3	16722	477.80511037925	0
3	16912	482.22414098551	1
3	16912	482.22414098551	0
3	17045	483.89554652985	1
3	17045	483.89554652985	0
3	17226	486.25140649701	1
3	17226	486.25140649701	0
3	17413	494.08376040352	1
3	17413	494.08376040352	0
3	17658	514.80988818861	1
3	17658	514.80988818861	0
3	17966	547.44422784011	1
3	17966	547.44422784011	0
3	18245	561.08257721482	1
3	18245	561.08257721482	0
3	18436	563.23363438611	1
3	18436	563.23363438611	0
3	18745	568.97216982852	1
3	18745	568.97216982852	0
3	18900	570.77009248305	1
3	18900	570.77009248305	0
3	19228	586.76625897727	1
3	19228	586.76625897727	0
3	19444	596.61053922469	1
3	19444	596.61053922469	0
3	19681	601.32678521779	1
3	19681	601.32678521779	0
3	20434	613.52660201342	1
3	20434	613.52660201342	0
3	21228	634.34752627337	1
3	21228	634.34752627337	0
3	21465	636.26387551866	1
3	21465	636.26387551866	0
3	21608	638.20961406899	1
3	21608	638.20961406899	0
3	21909	649.7159521183	1
3	21909	649.7159521183	0
3	22087	660.09590120569	1
3	22087	660.09590120569	0
3	22228	662.77384924379	1
3	22228	662.77384924379	0
3	22355	669.83473095823	1
3	22355	669.83473095823	0
3	22532	674.5410809983	1
3	22532	674.5410809983	0
3	22716	676.57813056431	1
3	22716	676.57813056431	0
3	23232	692.77747885049	1
3	23232	692.77747885049	0
3	23527	699.69654155228	1
3	23527	699.69654155228	0
3	23682	708.97099702673	1
3	23682	708.97099702673	0
3	23816	713.81841716117	1
3	23816	713.81841716117	0
3	24028	736.22981348038	1
3	24028	736.22981348038	0
3	24200	739.59032579457	1
3	24200	739.59032579457	0
3	24321	742.91061492988	1
3	24321	742.91061492988	0
3	24475	744.63279380036	1
3	24478	745.39243480915	0
3	24937	773.84155557389	1
3	24937	773.84155557389	0
3	25123	779.50926453804	1
3	25123	779.50926453804	0
3	25342	786.80028654674	1
3	25342	786.80028654674	0
3	25524	791.46651783304	1
3	25524	791.46651783304	0
3	26090	801.06016542605	1
3	26090	801.06016542605	0
3	26821	824.16597182241	1
3	26821	824.16597182241	0
3	27125	829.54395913523	1
3	27125	829.54395913523	0
3	27528	847.97999124145	1
3	27528	847.97999124145	0
3	27885	854.10577820866	1
3	27885	854.10577820866	0
3	28170	859.61931536056	1
3	28170	859.61931536056	0
3	28337	865.47174164029	1
3	28337	865.47174164029	0
3	28574	872.48249329538	1
3	28574	872.48249329538	0
3	28820	878.49247814939	1
3	28820	878.49247814939	0
3	29491	903.41505077334	1
3	29491	903.41505077334	0
3	29799	916.31840455388	1
3	29799	916.31840455388	0
3	29974	922.55638325312	1
3	29974	922.55638325312	0
3	30102	929.89463696244	1
3	30102	929.89463696244	0
3	30341	935.94095785579	1
3	30341	935.94095785579	0
3	30499	947.02367955254	1
3	30499	947.02367955254	0
3	30827	958.33353022006	1
3	30827	958.33353022006	0
3	31133	961.44665126862	1
3	31133	961.44665126862	0
3	31328	968.91043846284	1
3	31328	968.91043846284	0
3	31707	993.04590349484	1
3	31707	993.04590349484	0
3	31838	1001.62705955778	1
3	31838	1001.62705955778	0
3	32335	1009.85605222834	1
3	32335	1009.85605222834	0
3	32728	1021.21184554726	1
3	32728	1021.21184554726	0
3	33072	1025.59963344353	1
3	33072	1025.59963344353	0
3	33334	1040.72334011699	1
3	33334	1040.72334011699	0
3	33456	1046.61231293229	1
3	33456	1046.61231293229	0
3	33581	1049.56694415575	1
3	33581	1049.56694415575	0
3	33737	1051.771003778	1
3	33737	1051.771003778	0
3	33871	1055.06697587637	1
3	33871	1055.06697587637	0
3	34637	1077.04464750712	1
3	34637	1077.04464750712	0
3	34884	1083.00185292786	1
3	34884	1083.00185292786	0
3	35181	1091.10978386054	1
3	35181	1091.10978386054	0
3	35377	1095.56935661919	1
3	35377	1095.56935661919	0
3	35483	1098.71463982753	1
3	35483	1098.71463982753	0
3	35694	1104.10332015573	1
3	35694	1104.10332015573	0
3	35858	1110.6652191741	1
3	35858	1110.6652191741	0
3	36040	1119.32584082542	1
3	36040	1119.32584082542	0
3	36388	1136.12480540578	1
3	36388	1136.12480540578	0
3	36712	1153.56639585879	1
3	36712	1153.56639585879	0
3	36842	1156.52705182119	1
3	36842	1156.52705182119	0
3	37110	1164.16795764802	1
3	37110	1164.16795764802	0
3	37341	1176.98362647502	1
3	37341	1176.98362647502	0
3	37630	1183.16856828209	1
3	37630	1183.16856828209	0
3	37970	1194.8688056862	1
3	37970	1194.8688056862	0
3	38258	1196.8062743441	1
3	38258	1196.8062743441	0
3	38384	1198.45704816683	1
3	38384	1198.45704816683	0
3	38869	1217.69112726056	1
3	38869	1217.69112726056	0
3	39096	1231.96511906365	1
3	39096	1231.96511906365	0
3	39334	1234.39535011598	1
3	39334	1234.39535011598	0
3	39521	1239.82449339612	1
3	39521	1239.82449339612	0
3	39868	1247.03362120631	1
3	39868	1247.03362120631	0
3	39974	1250.90051698143	1
3	39974	1250.90051698143	0
3	40175	1256.15272326659	1
3	40175	1256.15272326659	0
3	40676	1264.07989987953	1
3	40676	1264.07989987953	0
3	40834	1269.60144575376	1
3	40834	1269.60144575376	0
3	41051	1282.32461016255	1
3	41051	1282.32461016255	0
3	41367	1300.45630016923	1
3	41367	1300.45630016923	0
3	41638	1310.83095091741	1
3	41638	1310.83095091741	0
3	42013	1325.28912213247	1
3	42013	1325.28912213247	0
3	42335	1331.61301207976	1
3	42335	1331.61301207976	0
3	42516	1333.89376968168	1
3	42653	1335.11546447799	0
3	42844	1341.96867607661	1
3	42844	1341.96867607661	0
3	42966	1349.37708470214	1
3	42966	1349.37708470214	0
3	43462	1368.47729011281	1
3	43462	1368.47729011281	0
3	43740	1374.46908958443	1
3	43740	1374.46908958443	0
3	44157	1384.51852288558	1
3	44157	1384.51852288558	0
3	44292	1388.14599939427	1
3	44292	1388.14599939427	0
3	44454	1391.59312025816	1
3	44454	1391.59312025816	0
3	44647	1410.53242357041	1
3	44647	1410.53242357041	0
3	44794	1413.66450818341	1
3	44794	1413.66450818341	0
3	44903	1415.78054085741	1
3	44903	1415.78054085741	0
3	45058	1419.20613930047	1
3	45058	1419.20613930047	0
3	45166	1426.68972032881	1
3	45166	1426.68972032881	0
3	45697	1433.57480900296	1
3	45697	1433.57480900296	0
3	45866	1443.48639660922	1
3	45866	1443.48639660922	0
3	46010	1455.27519943936	1
3	46010	1455.27519943936	0
3	46148	1457.21934930187	1
3	46148	1457.21934930187	0
3	46262	1461.27376817843	1
3	46262	1461.27376817843	0
3	46784	1470.89294738437	1
3	46784	1470.89294738437	0
3	47034	1474.22352697653	1
3	47034	1474.22352697653	0
3	47314	1488.36229876305	1
3	47314	1488.36229876305	0
3	47496	1500.83769354184	1
3	47496	1500.83769354184	0
3	47606	1506.8523846946	1
3	47606	1506.8523846946	0
3	47888	1510.41352944861	1
3	47888	1510.41352944861	0
3	48191	1517.6561403939	1
3	48191	1517.6561403939	0
3	48344	1521.1835871296	1
3	48344	1521.1835871296	0
3	48614	1526.65783601776	1
3	48614	1526.65783601776	0
3	48914	1544.18368286655	1
3	48914	1544.18368286655	0
3	49273	1550.61443880015	1
3	49273	1550.61443880015	0
3	49527	1554.87036869743	1
3	49527	1554.87036869743	0
3	49767	1562.18813051304	1
3	49767	1562.18813051304	0
3	49886	1567.07465564309	1
3	49886	1567.07465564309	0
3	50019	1569.91920269114	1
3	50019	1569.91920269114	0
3	50145	1576.42384366656	1
3	50145	1576.42384366656	0
3	50277	1589.82026263313	1
3	50277	1589.82026263313	0
3	50616	1602.11617555762	1
3	50616	1602.11617555762	0
3	50983	1608.62210540049	1
3	50983	1608.62210540049	0
3	51107	1613.9718166766	1
3	51107	1613.9718166766	0
3	51502	1629.17923922169	1
3	51502	1629.17923922169	0
3	51722	1641.70393751239	1
3	51722	1641.70393751239	0
3	52883	1665.57098033025	1
3	52883	1665.57098033025	0
3	53074	1675.55137131344	1
3	53074	1675.55137131344	0
3	53369	1684.29458385401	1
3	53369	1684.29458385401	0
3	54259	1715.28793043067	1
3	54259	1715.28793043067	0
3	54559	1728.4587178026	1
3	54559	1728.4587178026	0
3	54716	1732.77293380764	1
3	54716	1732.77293380764	0
3	54836	1737.64317708985	1
3	54836	1737.64317708985	0
3	54958	1739.51202062635	1
3	54958	1739.51202062635	0
3	55198	1748.89575112515	1
3	55198	1748.89575112515	0
3	55374	1751.50727035529	1
3	55374	1751.50727035529	0
3	55589	1759.96579704733	1
3	55589	1759.96579704733	0
3	55736	1778.47781819615	1
3	55736	1778.47781819615	0
3	55877	1782.97375316294	1
3	55877	1782.97375316294	0
3	56377	1802.07226538738	1
3	56377	1802.07226538738	0
3	56684	1807.82577352245	1
3	56684	1807.82577352245	0
3	56873	1812.31608880229	1
3	56873	1812.31608880229	0
3	57302	1820.89163910478	1
3	57302	1820.89163910478	0
3	57380	1822.59857242915	1
3	57406	1823.14527263541	0
3	57624	1828.67266507586	1
3	57624	1828.67266507586	0
3	58189	1843.01366686537	1
3	58189	1843.01366686537	0
3	58324	1849.57458887002	1
3	58324	1849.57458887002	0
3	58563	1854.07545178067	1
3	58563	1854.07545178067	0
3	58696	1857.47949097194	1
3	58696	1857.47949097194	0
3	58841	1861.36191973557	1
3	58841	1861.36191973557	0
3	59336	1871.84672348938	1
3	59336	1871.84672348938	0
3	59472	1880.89566857552	1
3	59472	1880.89566857552	0
3	59688	1889.05737273004	1
3	59688	1889.05737273004	0
3	60035	1903.52622178847	1
3	60035	1903.52622178847	0
3	60443	1913.35974582186	1
3	60443	1913.35974582186	0
3	60622	1915.38110373684	1
3	60622	1915.38110373684	0
3	60975	1929.17064649693	1
3	60975	1929.17064649693	0
3	61209	1932.27141804995	1
3	61209	1932.27141804995	0
3	61352	1936.74511713982	1
3	61352	1936.74511713982	0
3	61504	1957.09247598594	1
3	61504	1957.09247598594	0
3	61620	1959.51674508845	1
3	61620	1959.51674508845	0
3	61766	1967.48102337559	1
3	61766	1967.48102337559	0
3	61895	1980.96477079498	1
3	61895	1980.96477079498	0
3	62009	1985.74031053346	1
3	62009	1985.74031053346	0
3	62402	1995.71214544953	1
3	62402	1995.71214544953	0
3	62523	1998.28295381961	1
3	62523	1998.28295381961	0
3	62777	2006.1817989272	1
3	62777	2006.1817989272	0
3	62881	2010.03856180556	1
3	62881	2010.03856180556	0
3	63145	2015.43683040781	1
3	63145	2015.43683040781	0
3	63597	2025.92789343763	1
3	63597	2025.92789343763	0
3	64145	2039.45543222432	1
3	64145	2039.45543222432	0
3	64544	2050.58176161835	1
3	64544	2050.58176161835	0
3	64750	2052.86375612026	1
3	64768	2055.64021326239	0
3	65591	2069.99740236124	1
3	65591	2069.99740236124	0
3	65765	2082.16866405562	1
3	65765	2082.16866405562	0
3	66439	2107.73259442813	1
3	66439	2107.73259442813	0
3	66626	2117.21506841627	1
3	66626	2117.21506841627	0
3	66865	2131.9296349814	1
3	66865	2131.9296349814	0
3	67081	2135.91093361501	1
3	67081	2135.91093361501	0
3	67224	2138.67144989259	1
3	67224	2138.67144989259	0
3	67421	2140.91931973732	1
3	67421	2140.91931973732	0
3	67611	2145.17813416407	1
3	67611	2145.17813416407	0
3	67743	2150.44843141188	1
3	67743	2150.44843141188	0
3	67964	2176.25290589387	1
3	67964	2176.25290589387	0
3	68105	2180.89361992921	1
3	68105	2180.89361992921	0
3	68245	2185.93699901795	1
3	68245	2185.93699901795	0
3	68431	2190.82437140511	1
3	68431	2190.82437140511	0
3	68696	2194.95431850295	1
3	68696	2194.95431850295	0
3	68963	2199.12182438182	1
3	68963	2199.12182438182	0
3	69088	2209.40585582644	1
3	69088	2209.40585582644	0
3	69524	2218.48091400328	1
3	69524	2218.48091400328	0
3	69794	2223.30340694917	1
3	69794	2223.30340694917	0
3	70015	2234.41599917671	1
3	70015	2234.41599917671	0
3	70413	2252.39242132234	1
3	70413	2252.39242132234	0
3	70683	2256.4581140832	1
3	70683	2256.4581140832	0
3	71033	2266.79977686503	1
3	71033	2266.79977686503	0
3	71224	2278.3125358154	1
3	71224	2278.3125358154	0
3	71362	2283.18940366111	1
3	71362	2283.18940366111	0
3	71486	2286.04361833286	1
3	71486	2286.04361833286	0
3	71635	2287.77874102368	1
3	71642	2289.14156184325	0
3	71760	2292.04031330418	1
3	71760	2292.04031330418	0
3	72164	2300.88723515969	1
3	72164	2300.88723515969	0
3	72338	2311.09346166446	1
3	72338	2311.09346166446	0
3	72625	2316.85914004086	1
3	72625	2316.85914004086	0
3	72815	2325.35518174008	1
3	72815	2325.35518174008	0
3	73062	2329.15558315528	1
3	73062	2329.15558315528	0
3	73210	2335.86987569686	1
3	73210	2335.86987569686	0
3	73505	2356.76811398263	1
3	73505	2356.76811398263	0
3	73725	2363.95405933725	1
3	73725	2363.95405933725	0
3	74069	2374.74992231089	1
3	74069	2374.74992231089	0
3	74191	2380.60973691927	1
3	74191	2380.60973691927	0
3	74791	2396.54322810679	1
3	74791	2396.54322810679	0
3	75489	2410.16972466648	1
3	75489	2410.16972466648	0
3	75717	2415.70117082524	1
3	75717	2415.70117082524	0
3	76011	2425.35663600782	1
3	76011	2425.35663600782	0
3	76261	2431.90443898592	1
3	76261	2431.90443898592	0
3	76385	2438.35767776385	1
3	76385	2438.35767776385	0
3	76519	2442.01461249153	1
3	76519	2442.01461249153	0
3	76653	2449.21576646328	1
3	76653	2449.21576646328	0
3	76913	2459.27184026159	1
3	76913	2459.27184026159	0
3	77034	2467.12532377423	1
3	77034	2467.12532377423	0
3	77424	2491.65263526724	1
3	77424	2491.65263526724	0
3	78044	2504.35325169832	1
3	78044	2504.35325169832	0
3	78479	2518.36553432708	1
3	78479	2518.36553432708	0
3	78675	2525.48371863185	1
3	78675	2525.48371863185	0
3	79237	2536.55980229716	1
3	79237	2536.55980229716	0
3	79498	2551.69741348119	1
3	79498	2551.69741348119	0
3	79630	2559.57769211248	1
3	79630	2559.57769211248	0
3	79950	2568.85478147298	1
3	79950	2568.85478147298	0
3	80596	2587.24975674646	1
3	80596	2587.24975674646	0
3	80868	2591.37139245936	1
3	80868	2591.37139245936	0
3	81180	2605.37444036223	1
3	81180	2605.37444036223	0
3	81406	2611.53753577483	1
3	81406	2611.53753577483	0
3	81642	2613.60018223186	1
3	81642	2613.60018223186	0
3	81874	2615.57997110977	1
3	81904	2615.71273406313	0
3	82072	2620.1102306679	1
3	82072	2620.1102306679	0
3	82259	2628.63488180704	1
3	82259	2628.63488180704	0
3	82693	2647.1979769362	1
3	82693	2647.1979769362	0
3	82956	2660.93072732288	1
3	82956	2660.93072732288	0
3	83067	2669.16054647636	1
3	83067	2669.16054647636	0
3	83196	2676.52633162765	1
3	83196	2676.52633162765	0
3	83350	2681.21583764036	1
3	83350	2681.21583764036	0
3	83693	2691.57741608577	1
3	83693	2691.57741608577	0
3	83913	2695.1023795585	1
3	83913	2695.1023795585	0
3	84165	2707.18003422575	1
3	84165	2707.18003422575	0
3	84404	2713.87554779248	1
3	84404	2713.87554779248	0
3	84662	2723.53037042125	1
3	84662	2723.53037042125	0
3	85525	2755.25160386815	1
3	85525	2755.25160386815	0
3	86186	2773.43906080373	1
3	86186	2773.43906080373	0
3	86496	2778.04336356008	1
3	86496	2778.04336356008	0
3	86884	2782.22862220992	1
3	86884	2782.22862220992	0
3	87067	2787.75664109131	1
3	87067	2787.75664109131	0
3	87460	2793.91031735799	1
3	87460	2793.91031735799	0
3	87659	2800.70049630061	1
3	87659	2800.70049630061	0
3	87786	2806.7025223616	1
3	87786	2806.7025223616	0
3	87943	2813.41974461001	1
3	87943	2813.41974461001	0
3	88270	2822.43869961571	1
3	88270	2822.43869961571	0
3	88423	2839.23253408627	1
3	88423	2839.23253408627	0
3	88643	2855.51400794018	1
3	88643	2855.51400794018	0
3	89091	2867.78580974605	1
3	89091	2867.78580974605	0
3	89498	2878.05118322767	1
3	89498	2878.05118322767	0
3	89610	2892.50043652478	1
3	89610	2892.50043652478	0
3	89760	2900.00346594698	1
3	89760	2900.00346594698	0
3	90004	2907.92396872958	1
3	90004	2907.92396872958	0
3	90224	2914.40042266523	1
3	90224	2914.40042266523	0
3	90358	2917.92333240121	1
3	90358	2917.92333240121	0
3	90495	2922.24781745165	1
3	90511	2924.37034982213	0
3	90774	2935.00838316662	1
3	90774	2935.00838316662	0
3	91023	2938.51347808744	1
3	91023	2938.51347808744	0
3	91223	2941.23019138903	1
3	91223	2941.23019138903	0
3	91335	2948.83483348077	1
3	91335	2948.83483348077	0
3	91685	2951.52721337079	1
3	91685	2951.52721337079	0
3	92264	2961.87687503899	1
3	92264	2961.87687503899	0
3	92652	2969.74964097303	1
3	92652	2969.74964097303	0
3	92842	2974.07474638379	1
3	92842	2974.07474638379	0
3	93187	2978.048076631	1
3	93187	2978.048076631	0
3	93348	2981.23733885521	1
3	93348	2981.23733885521	0
3	93482	2986.17403172621	1
3	93482	2986.17403172621	0
3	93601	2988.4356019228	1
3	93601	2988.4356019228	0
3	93881	3003.05658402222	1
3	93881	3003.05658402222	0
3	93986	3011.17450515487	1
3	93986	3011.17450515487	0
3	94124	3015.41931199523	1
3	94124	3015.41931199523	0
3	94410	3035.78578484379	1
3	94410	3035.78578484379	0
3	94653	3041.88408851435	1
3	94653	3041.88408851435	0
3	95379	3073.32593799907	1
3	95379	3073.32593799907	0
3	95846	3090.48189896562	1
3	95846	3090.48189896562	0
3	95987	3097.63589219732	1
3	95987	3097.63589219732	0
3	96220	3104.28197392703	1
3	96220	3104.28197392703	0
3	96554	3111.05946145799	1
3	96554	3111.05946145799	0
3	96712	3113.04127285259	1
3	96712	3113.04127285259	0
3	96826	3115.42887099464	1
3	96826	3115.42887099464	0
3	97008	3124.40656390243	1
3	97008	3124.40656390243	0
3	97136	3126.45004801861	1
3	97136	3126.45004801861	0
3	97244	3131.94441724512	1
3	97244	3131.94441724512	0
3	97386	3134.35409652043	1
3	97386	3134.35409652043	0
3	97529	3136.57561255705	1
3	97529	3136.57561255705	0
3	98066	3148.64398556342	1
3	98066	3148.64398556342	0
3	98260	3153.43785125405	1
3	98260	3153.43785125405	0
3	98569	3170.740400018	1
3	98569	3170.740400018	0
3	98752	3173.87030418408	1
3	98945	3176.65748871214	2
3	98951	3177.66603716088	1
3	99008	3178.15689808323	0
3	99114	3179.63199922948	1
3	99114	3179.63199922948	0
3	99537	3196.84263675697	1
3	99537	3196.84263675697	0
3	99816	3212.10832277485	1
3	99816	3212.10832277485	0
3	99914	3213.81288999687	1
3	99914	3213.81288999687	0
3	100185	3218.80153126377	1
3	100185	3218.80153126377	0
3	100595	3240.65688910317	1
3	100595	3240.65688910317	0
3	100996	3257.08248639461	1
3	100996	3257.08248639461	0
3	101127	3261.84893888579	1
3	101127	3261.84893888579	0
3	101256	3276.26395039773	1
3	101256	3276.26395039773	0
3	101585	3279.5851406088	1
3	101599	3279.66951668631	0
3	102051	3296.12519157062	1
3	102051	3296.12519157062	0
3	102195	3299.39311855207	1
3	102195	3299.39311855207	0
3	102408	3307.60753093689	1
3	102408	3307.60753093689	0
3	103089	3326.73864175683	1
3	103089	3326.73864175683	0
3	103381	3330.66892761906	1
3	103381	3330.66892761906	0
3	103569	3336.48135021725	1
3	103569	3336.48135021725	0
3	103722	3339.10426844991	1
3	103722	3339.10426844991	0
3	104107	3350.85618297747	1
3	104107	3350.85618297747	0
3	104526	3356.63213144623	1
3	104526	3356.63213144623	0
3	104825	3364.60513775581	1
3	104825	3364.60513775581	0
3	105368	3391.9935018319	1
3	105368	3391.9935018319	0
3	105745	3400.60306061563	1
3	105745	3400.60306061563	0
3	105948	3405.09096541425	1
3	105948	3405.09096541425	0
3	106177	3409.9566654973	1
3	106177	3409.9566654973	0
3	106420	3432.78211267766	1
3	106420	3432.78211267766	0
3	106683	3441.9880716166	1
3	106683	3441.9880716166	0
3	106949	3446.69308776689	1
3	106949	3446.69308776689	0
3	107270	3464.43500556328	1
3	107270	3464.43500556328	0
3	107391	3467.72328613498	1
3	107391	3467.72328613498	0
3	107508	3470.73594828814	1
3	107508	3470.73594828814	0
3	107777	3488.08542259327	1
3	107777	3488.08542259327	0
3	107995	3494.02516495985	1
3	107995	3494.02516495985	0
3	108333	3498.4837835935	1
3	108333	3498.4837835935	0
3	108525	3506.26526051657	1
3	108525	3506.26526051657	0
3	108928	3515.5109595588	1
3	108928	3515.5109595588	0
3	109155	3520.07452443608	1
3	109155	3520.07452443608	0
3	109490	3527.25207799872	1
3	109490	3527.25207799872	0
3	109705	3531.54956467458	1
3	109705	3531.54956467458	0
3	109833	3533.73930663139	1
3	109833	3533.73930663139	0
3	110160	3545.69904386649	1
3	110160	3545.69904386649	0
3	110300	3548.07729295434	1
3	110300	3548.07729295434	0
3	110661	3557.59831634397	1
3	110661	3557.59831634397	0
3	110879	3560.88205259202	1
3	110879	3560.88205259202	0
3	111040	3570.03389751333	1
3	111040	3570.03389751333	0
3	111160	3581.06632367364	1
3	111160	3581.06632367364	0
3	111433	3583.99338213912	1
3	111433	3583.99338213912	0
3	111652	3594.98467987368	1
3	111652	3594.98467987368	0
4	5510	86.51672711941	1.71213000401
4	5635	96.26144789703	1.71213043231
4	5767	117.33963062626	1.71212972058
4	6004	186.61789448069	1.71213256388
4	6237	188.68116270843	1.71213062766
4	6486	193.8954245142	2.78089340385
4	8195	217.15526835001	1.71212963425
4	8544	221.80877849657	1.71213040316
4	9070	228.36849837478	1.71213010688
4	9492	238.59645841924	1.71212979124
4	9734	244.20409273247	1.71213010989
4	10256	263.20351381844	1.71213000401
4	10510	266.96745233148	1.71213094432
4	10690	271.75182172911	1.71213015088
4	10810	274.54493729003	1.71213069701
4	10938	278.36208689343	1.71213043231
4	11072	294.21553433952	1.71212972058
4	11415	304.64746738802	1.71213026543
4	11714	340.46093002965	1.71213220092
4	11965	369.41154423542	1.71213032208
4	12190	374.9507870063	1.71213005988
4	12438	379.1046805241	1.71213039971
4	12909	389.76969382575	1.71213062766
4	13515	395.15485933252	1.71213030375
4	14001	407.62387175534	1.71213262646
4	14406	419.39747574697	1.71213010989
4	14744	423.32091573581	1.71213022338
4	15235	430.94750807356	1.71213156556
4	15698	446.57098783733	1.71213109963
4	15800	448.58722847223	1.71212979124
4	15960	455.09776904017	1.71213310419
4	16250	468.16459495785	1.71213320101
4	16366	470.42844951251	1.71213010688
4	16552	474.29921190671	1.71213015088
4	16722	477.80511037925	1.71213043231
4	16912	482.22414098551	1.71212972058
4	17045	483.89554652985	1.712130054
4	17226	486.25140649701	1.71212963425
4	17413	494.08376040352	1.71213026543
4	17658	514.80988818861	1.71212969692
4	17966	547.44422784011	1.71213058764
4	18245	561.08257721482	1.71213005988
4	18436	563.23363438611	1.71213032208
4	18745	568.97216982852	1.7121307279
4	18900	570.77009248305	1.71213040316
4	19228	586.76625897727	1.71213060972
4	19444	596.61053922469	1.71213292982
4	19681	601.32678521779	1.71213133861
4	20434	613.52660201342	1.71213010989
4	21228	634.34752627337	1.71212979124
4	21465	636.26387551866	1.71213000401
4	21608	638.20961406899	1.71213030375
4	21909	649.7159521183	1.71213039971
4	22087	660.09590120569	1.71212972058
4	22228	662.77384924379	1.71213010688
4	22355	669.83473095823	1.712130054
4	22532	674.5410809983	1.71213026543
4	23232	692.77747885049	1.71212969692
4	23527	699.69654155228	1.71213043231
4	23682	708.97099702673	1.71213073858
4	23816	713.81841716117	1.71213108062
4	24028	736.22981348038	1.71213256388
4	24200	739.59032579457	1.71213032208
4	24321	742.91061492988	1.71213040316
4	24478	745.39243480915	2.47177173669
4	24937	773.84155557389	1.71213060972
4	25123	779.50926453804	1.71213062766
4	25342	786.80028654674	1.71213042582
4	25524	791.46651783304	1.71213010989
4	26090	801.06016542605	1.71213022338
4	26821	824.16597182241	1.71213015088
4	27125	829.54395913523	1.71213039971
4	27528	847.97999124145	1.71213069701
4	27885	854.10577820866	1.71213010688
4	28170	859.61931536056	1.71213213825
4	28337	865.47174164029	1.71212969692
4	28820	878.49247814939	1.712130054
4	29799	916.31840455388	1.71213032208
4	29974	922.55638325312	1.71213005988
4	30102	929.89463696244	1.71213026543
4	30341	935.94095785579	1.71213040316
4	30499	947.02367955254	1.7121307279
4	30827	958.33353022006	1.71213042582
4	31133	961.44665126862	1.71213060972
4	31328	968.91043846284	1.71213166278
4	31707	993.04590349484	1.71213250801
4	31838	1001.62705955778	1.7121327574
4	32728	1021.21184554726	1.71213069701
4	33072	1025.59963344353	1.71212979124
4	33334	1040.72334011699	1.71213010688
4	33456	1046.61231293229	1.71212969692
4	33581	1049.56694415575	1.71213022338
4	33737	1051.771003778	1.71213094432
4	33871	1055.06697587637	1.71213121047
4	34637	1077.04464750712	1.71212963425
4	35181	1091.10978386054	1.71213032208
4	35377	1095.56935661919	1.71213119024
4	35483	1098.71463982753	1.71212972058
4	35694	1104.10332015573	1.71213159072
4	35858	1110.6652191741	1.71213005988
4	36388	1136.12480540578	1.71213060972
4	36712	1153.56639585879	1.71213026543
4	36842	1156.52705182119	1.71213040316
4	37110	1164.16795764802	1.71213062766
4	37341	1176.98362647502	1.71213058764
4	37630	1183.16856828209	1.71213015088
4	37970	1194.8688056862	1.71213069701
4	38258	1196.8062743441	1.71213000401
4	38384	1198.45704816683	1.71213010989
4	38869	1217.69112726056	1.71213010688
4	39334	1234.39535011598	1.712130054
4	39868	1247.03362120631	1.71213094432
4	39974	1250.90051698143	1.71212979124
4	40175	1256.15272326659	1.71213030375
4	40676	1264.07989987953	1.71212963425
4	40834	1269.60144575376	1.71213121047
4	41051	1282.32461016255	1.71213005988
4	41367	1300.45630016923	1.71213119024
4	41638	1310.83095091741	1.71213042582
4	42013	1325.28912213247	1.71213133861
4	42653	1335.11546447799	2.93382451689
4	42966	1349.37708470214	1.71213058764
4	43462	1368.47729011281	1.71213250801
4	43740	1374.46908958443	1.71213015088
4	44157	1384.51852288558	1.71213207755
4	44292	1388.14599939427	1.7121317846
4	44454	1391.59312025816	1.71213069701
4	44647	1410.53242357041	1.712130054
4	44903	1415.78054085741	1.71213010989
4	45058	1419.20613930047	1.71213094432
4	45166	1426.68972032881	1.71212979124
4	45697	1433.57480900296	1.71213156556
4	45866	1443.48639660922	1.71213022338
4	46010	1455.27519943936	1.71213030375
4	46148	1457.21934930187	1.71213060972
4	46262	1461.27376817843	1.71212963425
4	46784	1470.89294738437	1.71213032208
4	47034	1474.22352697653	1.71213119024
4	47314	1488.36229876305	1.71213005988
4	47496	1500.83769354184	1.71213293631
4	47606	1506.8523846946	1.71212969692
4	47888	1510.41352944861	1.71213026543
4	48191	1517.6561403939	1.71213042582
4	48344	1521.1835871296	1.71213062766
4	48614	1526.65783601776	1.71212972058
4	48914	1544.18368286655	1.71213040316
4	49527	1554.87036869743	1.7121307279
4	49767	1562.18813051304	1.7121317846
4	49886	1567.07465564309	1.71213039971
4	50019	1569.91920269114	1.71213010688
4	50145	1576.42384366656	1.71213000401
4	50277	1589.82026263313	1.712130054
4	50616	1602.11617555762	1.71213010989
4	50983	1608.62210540049	1.71213058764
4	51107	1613.9718166766	1.71213069701
4	51502	1629.17923922169	1.71213311372
4	51722	1641.70393751239	1.71213022338
4	53074	1675.55137131344	1.71213043231
4	53369	1684.29458385401	1.71212969692
4	54259	1715.28793043067	1.71213042582
4	54559	1728.4587178026	1.71213026543
4	54716	1732.77293380764	1.71213208623
4	54836	1737.64317708985	1.71213015088
4	54958	1739.51202062635	1.71213039971
4	55198	1748.89575112515	1.71213000401
4	55374	1751.50727035529	1.7121332319
4	55589	1759.96579704733	1.71213040316
4	55736	1778.47781819615	1.71213010688
4	56377	1802.07226538738	1.71213058764
4	56684	1807.82577352245	1.71213156556
4	56873	1812.31608880229	1.71213108062
4	57406	1823.14527263541	2.25883090327
4	57624	1828.67266507586	1.71212972058
4	58189	1843.01366686537	1.71213005988
4	58324	1849.57458887002	1.71212979124
4	58563	1854.07545178067	1.71213010989
4	58696	1857.47949097194	1.71213043231
4	58841	1861.36191973557	1.71213030375
4	59336	1871.84672348938	1.71213369424
4	59472	1880.89566857552	1.71213258963
4	59688	1889.05737273004	1.71212969692
4	60035	1903.52622178847	1.71213026543
4	60443	1913.35974582186	1.71213015088
4	60622	1915.38110373684	1.71213039971
4	60975	1929.17064649693	1.71213042582
4	61209	1932.27141804995	1.71213040316
4	61352	1936.74511713982	1.71213000401
4	61504	1957.09247598594	1.7121317846
4	61766	1967.48102337559	1.7121307279
4	61895	1980.96477079498	1.71213073858
4	62009	1985.74031053346	1.712130054
4	62402	1995.71214544953	1.71213344832
4	62523	1998.28295381961	1.71213058764
4	62777	2006.1817989272	1.71213108062
4	62881	2010.03856180556	1.71213022338
4	63145	2015.43683040781	1.71213109963
4	63597	2025.92789343763	1.71213032208
4	64145	2039.45543222432	1.71212963425
4	64544	2050.58176161835	1.71213010989
4	64768	2055.64021326239	4.48858775185
4	65591	2069.99740236124	1.71213030375
4	65765	2082.16866405562	1.71213026543
4	66439	2107.73259442813	1.71213042582
4	66626	2117.21506841627	1.71213459023
4	66865	2131.9296349814	1.71213062766
4	67081	2135.91093361501	1.71213000401
4	67224	2138.67144989259	1.71213010688
4	67421	2140.91931973732	1.7121307279
4	67611	2145.17813416407	1.71213159072
4	67743	2150.44843141188	1.71213133861
4	67964	2176.25290589387	1.712130054
4	68105	2180.89361992921	1.71213058764
4	68245	2185.93699901795	1.71213094432
4	68431	2190.82437140511	1.71213223937
4	68696	2194.95431850295	1.71213022338
4	68963	2199.12182438182	1.71213108062
4	69088	2209.40585582644	1.71213032208
4	69524	2218.48091400328	1.71212979124
4	69794	2223.30340694917	1.71213119024
4	70015	2234.41599917671	1.71213010989
4	70413	2252.39242132234	1.71213222458
4	70683	2256.4581140832	1.71212963425
4	71033	2266.79977686503	1.71212969692
4	71224	2278.3125358154	1.71213069701
4	71362	2283.18940366111	1.71213039971
4	71486	2286.04361833286	1.71213042582
4	71642	2289.14156184325	3.07495142929
4	71760	2292.04031330418	1.71213030375
4	72164	2300.88723515969	1.71213208623
4	72338	2311.09346166446	1.71213005988
4	72625	2316.85914004086	1.71213040316
4	72815	2325.35518174008	1.71213026543
4	73062	2329.15558315528	1.71213010688
4	73210	2335.86987569686	1.71213073858
4	73505	2356.76811398263	1.7121307279
4	73725	2363.95405933725	1.71213000401
4	74069	2374.74992231089	1.71213360363
4	74191	2380.60973691927	1.71213058764
4	74791	2396.54322810679	1.71212979124
4	75489	2410.16972466648	1.71213121047
4	75717	2415.70117082524	1.71213010989
4	76011	2425.35663600782	1.71212972058
4	76261	2431.90443898592	1.712130054
4	76385	2438.35767776385	1.71213043231
4	76519	2442.01461249153	1.71212963425
4	76653	2449.21576646328	1.71212969692
4	76913	2459.27184026159	1.71213060972
4	77424	2491.65263526724	1.71213005988
4	78479	2518.36553432708	1.71213040316
4	78675	2525.48371863185	1.71213039971
4	79237	2536.55980229716	1.71213000401
4	79498	2551.69741348119	1.71213094432
4	79630	2559.57769211248	1.71213108062
4	79950	2568.85478147298	1.71212979124
4	80868	2591.37139245936	1.71213010989
4	81406	2611.53753577483	1.71212972058
4	81642	2613.60018223186	1.71212963425
4	81904	2615.71273406313	1.84489338567
4	82072	2620.1102306679	1.71213022338
4	82259	2628.63488180704	1.712132558
4	82693	2647.1979769362	1.71212969692
4	83067	2669.16054647636	1.71213042582
4	83350	2681.21583764036	1.71213311529
4	83693	2691.57741608577	1.71213073858
4	83913	2695.1023795585	1.71213069701
4	84165	2707.18003422575	1.71213039971
4	84404	2713.87554779248	1.71213030375
4	84662	2723.53037042125	1.71213168996
4	85525	2755.25160386815	1.71213229524
4	86496	2778.04336356008	1.71213062766
4	86884	2782.22862220992	1.71213032208
4	87067	2787.75664109131	1.71212972058
4	87460	2793.91031735799	1.71213022338
4	87786	2806.7025223616	1.71213043231
4	87943	2813.41974461001	1.71213121047
4	88270	2822.43869961571	1.712130054
4	88423	2839.23253408627	1.71213060972
4	88643	2855.51400794018	1.71212969692
4	89498	2878.05118322767	1.71213320101
4	89610	2892.50043652478	1.71213042582
4	89760	2900.00346594698	1.71213073858
4	90004	2907.92396872958	1.71213166278
4	90224	2914.40042266523	1.71213000401
4	90358	2917.92333240121	1.71213039971
4	90511	2924.37034982213	3.83466252136
4	91023	2938.51347808744	1.71213030375
4	91223	2941.23019138903	1.71213108062
4	91335	2948.83483348077	1.71213026543
4	91685	2951.52721337079	1.71213010688
4	92264	2961.87687503899	1.71213032208
4	92652	2969.74964097303	1.71212972058
4	93187	2978.048076631	1.71212963425
4	93348	2981.23733885521	1.7121307279
4	93601	2988.4356019228	1.71213058764
4	93881	3003.05658402222	1.71213261389
4	93986	3011.17450515487	1.71213043231
4	94410	3035.78578484379	1.71212969692
4	94653	3041.88408851435	1.71213005988
4	95379	3073.32593799907	1.71213069701
4	95846	3090.48189896562	1.71213042582
4	95987	3097.63589219732	1.71213015088
4	96220	3104.28197392703	1.71213039971
4	96554	3111.05946145799	1.71212979124
4	96712	3113.04127285259	1.71213133861
4	96826	3115.42887099464	1.71213000401
4	97008	3124.40656390243	1.71213358462
4	97136	3126.45004801861	1.71213062766
4	97386	3134.35409652043	1.71213030375
4	97529	3136.57561255705	1.71213208623
4	98066	3148.64398556342	1.71213022338
4	98260	3153.43785125405	1.71212972058
4	98569	3170.740400018	1.71213010688
4	99008	3178.15689808323	5.99872422123
4	99114	3179.63199922948	1.71212963425
4	99537	3196.84263675697	1.71213058764
4	99816	3212.10832277485	1.71213010989
4	99914	3213.81288999687	1.71213119024
4	100185	3218.80153126377	1.71213005988
4	100996	3257.08248639461	1.71213320101
4	101127	3261.84893888579	1.71213207755
4	101256	3276.26395039773	1.71213073858
4	101599	3279.66951668631	1.79650622839
4	102051	3296.12519157062	1.71213039971
4	102195	3299.39311855207	1.71213060972
4	102408	3307.60753093689	1.71212979124
4	103089	3326.73864175683	1.71213022338
4	103381	3330.66892761906	1.71213000401
4	103569	3336.48135021725	1.71212972058
4	103722	3339.10426844991	1.71213208623
4	104107	3350.85618297747	1.71212963425
4	104526	3356.63213144623	1.71213062766
4	104825	3364.60513775581	1.71213133861
4	105368	3391.9935018319	1.71213358462
4	105745	3400.60306061563	1.71213005988
4	105948	3405.09096541425	1.71213032208
4	106177	3409.9566654973	1.71213010989
4	106420	3432.78211267766	1.71212969692
4	106683	3441.9880716166	1.71213207755
4	106949	3446.69308776689	1.71213069701
4	107270	3464.43500556328	1.71213073858
4	107391	3467.72328613498	1.71213015088
4	107777	3488.08542259327	1.71213262646
4	107995	3494.02516495985	1.712130054
4	108333	3498.4837835935	1.71213026543
4	108525	3506.26526051657	1.71212979124
4	108928	3515.5109595588	1.71213250801
4	109155	3520.07452443608	1.71213010688
4	109490	3527.25207799872	1.71212972058
4	109705	3531.54956467458	1.71213062766
4	109833	3533.73930663139	1.71213109963
4	110661	3557.59831634397	1.71213133861
4	110879	3560.88205259202	1.71212963425
4	111040	3570.03389751333	1.71213119024
4	111160	3581.06632367364	1.71213032208
4	111433	3583.99338213912	1.71213010989
5	5510	86.51672711941	1.71213000401
5	5635	96.26144789703	1.71213043231
5	5767	117.33963062626	1.71212972058
5	6004	186.61789448069	1.71213256388
5	6237	188.68116270843	1.71213062766
5	6486	193.8954245142	2.78089340385
5	8195	217.15526835001	1.71212963425
5	8544	221.80877849657	1.71213040316
5	9070	228.36849837478	1.71213010688
5	9492	238.59645841924	1.71212979124
5	9734	244.20409273247	1.71213010989
5	10256	263.20351381844	1.71213000401
5	10510	266.96745233148	1.71213094432
5	10690	271.75182172911	1.71213015088
5	10810	274.54493729003	1.71213069701
5	10938	278.36208689343	1.71213043231
5	11072	294.21553433952	1.71212972058
5	11415	304.64746738802	1.71213026543
5	11714	340.46093002965	1.71213220092
5	11965	369.41154423542	1.71213032208
5	12190	374.9507870063	1.71213005988
5	12438	379.1046805241	1.71213039971
5	12909	389.76969382575	1.71213062766
5	13515	395.15485933252	1.71213030375
5	14001	407.62387175534	1.71213262646
5	14406	419.39747574697	1.71213010989
5	14744	423.32091573581	1.71213022338
5	15235	430.94750807356	1.71213156556
5	15698	446.57098783733	1.71213109963
5	15800	448.58722847223	1.71212979124
5	15960	455.09776904017	1.71213310419
5	16250	468.16459495785	1.71213320101
5	16366	470.42844951251	1.71213010688
5	16552	474.29921190671	1.71213015088
5	16722	477.80511037925	1.71213043231
5	16912	482.22414098551	1.71212972058
5	17045	483.89554652985	1.712130054
5	17226	486.25140649701	1.71212963425
5	17413	494.08376040352	1.71213026543
5	17658	514.80988818861	1.71212969692
5	17966	547.44422784011	1.71213058764
5	18245	561.08257721482	1.71213005988
5	18436	563.23363438611	1.71213032208
5	18745	568.97216982852	1.7121307279
5	18900	570.77009248305	1.71213040316
5	19228	586.76625897727	1.71213060972
5	19444	596.61053922469	1.71213292982
5	19681	601.32678521779	1.71213133861
5	20434	613.52660201342	1.71213010989
5	21228	634.34752627337	1.71212979124
5	21465	636.26387551866	1.71213000401
5	21608	638.20961406899	1.71213030375
5	21909	649.7159521183	1.71213039971
5	22087	660.09590120569	1.71212972058
5	22228	662.77384924379	1.71213010688
5	22355	669.83473095823	1.712130054
5	22532	674.5410809983	1.71213026543
5	23232	692.77747885049	1.71212969692
5	23527	699.69654155228	1.71213043231
5	23682	708.97099702673	1.71213073858
5	23816	713.81841716117	1.71213108062
5	24028	736.22981348038	1.71213256388
5	24200	739.59032579457	1.71213032208
5	24321	742.91061492988	1.71213040316
5	24478	745.39243480915	2.47177173669
5	24937	773.84155557389	1.71213060972
5	25123	779.50926453804	1.71213062766
5	25342	786.80028654674	1.71213042582
5	25524	791.46651783304	1.71213010989
5	26090	801.06016542605	1.71213022338
5	26821	824.16597182241	1.71213015088
5	27125	829.54395913523	1.71213039971
5	27528	847.97999124145	1.71213069701
5	27885	854.10577820866	1.71213010688
5	28170	859.61931536056	1.71213213825
5	28337	865.47174164029	1.71212969692
5	28820	878.49247814939	1.712130054
5	29799	916.31840455388	1.71213032208
5	29974	922.55638325312	1.71213005988
5	30102	929.89463696244	1.71213026543
5	30341	935.94095785579	1.71213040316
5	30499	947.02367955254	1.7121307279
5	30827	958.33353022006	1.71213042582
5	31133	961.44665126862	1.71213060972
5	31328	968.91043846284	1.71213166278
5	31707	993.04590349484	1.71213250801
5	31838	1001.62705955778	1.7121327574
5	32728	1021.21184554726	1.71213069701
5	33072	1025.59963344353	1.71212979124
5	33334	1040.72334011699	1.71213010688
5	33456	1046.61231293229	1.71212969692
5	33581	1049.56694415575	1.71213022338
5	33737	1051.771003778	1.71213094432
5	33871	1055.06697587637	1.71213121047
5	34637	1077.04464750712	1.71212963425
5	35181	1091.10978386054	1.71213032208
5	35377	1095.56935661919	1.71213119024
5	35483	1098.71463982753	1.71212972058
5	35694	1104.10332015573	1.71213159072
5	35858	1110.6652191741	1.71213005988
5	36388	1136.12480540578	1.71213060972
5	36712	1153.56639585879	1.71213026543
5	36842	1156.52705182119	1.71213040316
5	37110	1164.16795764802	1.71213062766
5	37341	1176.98362647502	1.71213058764
5	37630	1183.16856828209	1.71213015088
5	37970	1194.8688056862	1.71213069701
5	38258	1196.8062743441	1.71213000401
5	38384	1198.45704816683	1.71213010989
5	38869	1217.69112726056	1.71213010688
5	39334	1234.39535011598	1.712130054
5	39868	1247.03362120631	1.71213094432
5	39974	1250.90051698143	1.71212979124
5	40175	1256.15272326659	1.71213030375
5	40676	1264.07989987953	1.71212963425
5	40834	1269.60144575376	1.71213121047
5	41051	1282.32461016255	1.71213005988
5	41367	1300.45630016923	1.71213119024
5	41638	1310.83095091741	1.71213042582
5	42013	1325.28912213247	1.71213133861
5	42653	1335.11546447799	2.93382451689
5	42966	1349.37708470214	1.71213058764
5	43462	1368.47729011281	1.71213250801
5	43740	1374.46908958443	1.71213015088
5	44157	1384.51852288558	1.71213207755
5	44292	1388.14599939427	1.7121317846
5	44454	1391.59312025816	1.71213069701
5	44647	1410.53242357041	1.712130054
5	44903	1415.78054085741	1.71213010989
5	45058	1419.20613930047	1.71213094432
5	45166	1426.68972032881	1.71212979124
5	45697	1433.57480900296	1.71213156556
5	45866	1443.48639660922	1.71213022338
5	46010	1455.27519943936	1.71213030375
5	46148	1457.21934930187	1.71213060972
5	46262	1461.27376817843	1.71212963425
5	46784	1470.89294738437	1.71213032208
5	47034	1474.22352697653	1.71213119024
5	47314	1488.36229876305	1.71213005988
5	47496	1500.83769354184	1.71213293631
5	47606	1506.8523846946	1.71212969692
5	47888	1510.41352944861	1.71213026543
5	48191	1517.6561403939	1.71213042582
5	48344	1521.1835871296	1.71213062766
5	48614	1526.65783601776	1.71212972058
5	48914	1544.18368286655	1.71213040316
5	49527	1554.87036869743	1.7121307279
5	49767	1562.18813051304	1.7121317846
5	49886	1567.07465564309	1.71213039971
5	50019	1569.91920269114	1.71213010688
5	50145	1576.42384366656	1.71213000401
5	50277	1589.82026263313	1.712130054
5	50616	1602.11617555762	1.71213010989
5	50983	1608.62210540049	1.71213058764
5	51107	1613.9718166766	1.71213069701
5	51502	1629.17923922169	1.71213311372
5	51722	1641.70393751239	1.71213022338
5	53074	1675.55137131344	1.71213043231
5	53369	1684.29458385401	1.71212969692
5	54259	1715.28793043067	1.71213042582
5	54559	1728.4587178026	1.71213026543
5	54716	1732.77293380764	1.71213208623
5	54836	1737.64317708985	1.71213015088
5	54958	1739.51202062635	1.71213039971
5	55198	1748.89575112515	1.71213000401
5	55374	1751.50727035529	1.7121332319
5	55589	1759.96579704733	1.71213040316
5	55736	1778.47781819615	1.71213010688
5	56377	1802.07226538738	1.71213058764
5	56684	1807.82577352245	1.71213156556
5	56873	1812.31608880229	1.71213108062
5	57406	1823.14527263541	2.25883090327
5	57624	1828.67266507586	1.71212972058
5	58189	1843.01366686537	1.71213005988
5	58324	1849.57458887002	1.71212979124
5	58563	1854.07545178067	1.71213010989
5	58696	1857.47949097194	1.71213043231
5	58841	1861.36191973557	1.71213030375
5	59336	1871.84672348938	1.71213369424
5	59472	1880.89566857552	1.71213258963
5	59688	1889.05737273004	1.71212969692
5	60035	1903.52622178847	1.71213026543
5	60443	1913.35974582186	1.71213015088
5	60622	1915.38110373684	1.71213039971
5	60975	1929.17064649693	1.71213042582
5	61209	1932.27141804995	1.71213040316
5	61352	1936.74511713982	1.71213000401
5	61504	1957.09247598594	1.7121317846
5	61766	1967.48102337559	1.7121307279
5	61895	1980.96477079498	1.71213073858
5	62009	1985.74031053346	1.712130054
5	62402	1995.71214544953	1.71213344832
5	62523	1998.28295381961	1.71213058764
5	62777	2006.1817989272	1.71213108062
5	62881	2010.03856180556	1.71213022338
5	63145	2015.43683040781	1.71213109963
5	63597	2025.92789343763	1.71213032208
5	64145	2039.45543222432	1.71212963425
5	64544	2050.58176161835	1.71213010989
5	64768	2055.64021326239	4.48858775185
5	65591	2069.99740236124	1.71213030375
5	65765	2082.16866405562	1.71213026543
5	66439	2107.73259442813	1.71213042582
5	66626	2117.21506841627	1.71213459023
5	66865	2131.9296349814	1.71213062766
5	67081	2135.91093361501	1.71213000401
5	67224	2138.67144989259	1.71213010688
5	67421	2140.91931973732	1.7121307279
5	67611	2145.17813416407	1.71213159072
5	67743	2150.44843141188	1.71213133861
5	67964	2176.25290589387	1.712130054
5	68105	2180.89361992921	1.71213058764
5	68245	2185.93699901795	1.71213094432
5	68431	2190.82437140511	1.71213223937
5	68696	2194.95431850295	1.71213022338
5	68963	2199.12182438182	1.71213108062
5	69088	2209.40585582644	1.71213032208
5	69524	2218.48091400328	1.71212979124
5	69794	2223.30340694917	1.71213119024
5	70015	2234.41599917671	1.71213010989
5	70413	2252.39242132234	1.71213222458
5	70683	2256.4581140832	1.71212963425
5	71033	2266.79977686503	1.71212969692
5	71224	2278.3125358154	1.71213069701
5	71362	2283.18940366111	1.71213039971
5	71486	2286.04361833286	1.71213042582
5	71642	2289.14156184325	3.07495142929
5	71760	2292.04031330418	1.71213030375
5	72164	2300.88723515969	1.71213208623
5	72338	2311.09346166446	1.71213005988
5	72625	2316.85914004086	1.71213040316
5	72815	2325.35518174008	1.71213026543
5	73062	2329.15558315528	1.71213010688
5	73210	2335.86987569686	1.71213073858
5	73505	2356.76811398263	1.7121307279
5	73725	2363.95405933725	1.71213000401
5	74069	2374.74992231089	1.71213360363
5	74191	2380.60973691927	1.71213058764
5	74791	2396.54322810679	1.71212979124
5	75489	2410.16972466648	1.71213121047
5	75717	2415.70117082524	1.71213010989
5	76011	2425.35663600782	1.71212972058
5	76261	2431.90443898592	1.712130054
5	76385	2438.35767776385	1.71213043231
5	76519	2442.01461249153	1.71212963425
5	76653	2449.21576646328	1.71212969692
5	76913	2459.27184026159	1.71213060972
5	77424	2491.65263526724	1.71213005988
5	78479	2518.36553432708	1.71213040316
5	78675	2525.48371863185	1.71213039971
5	79237	2536.55980229716	1.71213000401
5	79498	2551.69741348119	1.71213094432
5	79630	2559.57769211248	1.71213108062
5	79950	2568.85478147298	1.71212979124
5	80868	2591.37139245936	1.71213010989
5	81406	2611.53753577483	1.71212972058
5	81642	2613.60018223186	1.71212963425
5	81904	2615.71273406313	1.84489338567
5	82072	2620.1102306679	1.71213022338
5	82259	2628.63488180704	1.712132558
5	82693	2647.1979769362	1.71212969692
5	83067	2669.16054647636	1.71213042582
5	83350	2681.21583764036	1.71213311529
5	83693	2691.57741608577	1.71213073858
5	83913	2695.1023795585	1.71213069701
5	84165	2707.18003422575	1.71213039971
5	84404	2713.87554779248	1.71213030375
5	84662	2723.53037042125	1.71213168996
5	85525	2755.25160386815	1.71213229524
5	86496	2778.04336356008	1.71213062766
5	86884	2782.22862220992	1.71213032208
5	87067	2787.75664109131	1.71212972058
5	87460	2793.91031735799	1.71213022338
5	87786	2806.7025223616	1.71213043231
5	87943	2813.41974461001	1.71213121047
5	88270	2822.43869961571	1.712130054
5	88423	2839.23253408627	1.71213060972
5	88643	2855.51400794018	1.71212969692
5	89498	2878.05118322767	1.71213320101
5	89610	2892.50043652478	1.71213042582
5	89760	2900.00346594698	1.71213073858
5	90004	2907.92396872958	1.71213166278
5	90224	2914.40042266523	1.71213000401
5	90358	2917.92333240121	1.71213039971
5	90511	2924.37034982213	3.83466252136
5	91023	2938.51347808744	1.71213030375
5	91223	2941.23019138903	1.71213108062
5	91335	2948.83483348077	1.71213026543
5	91685	2951.52721337079	1.71213010688
5	92264	2961.87687503899	1.71213032208
5	92652	2969.74964097303	1.71212972058
5	93187	2978.048076631	1.71212963425
5	93348	2981.23733885521	1.7121307279
5	93601	2988.4356019228	1.71213058764
5	93881	3003.05658402222	1.71213261389
5	93986	3011.17450515487	1.71213043231
5	94410	3035.78578484379	1.71212969692
5	94653	3041.88408851435	1.71213005988
5	95379	3073.32593799907	1.71213069701
5	95846	3090.48189896562	1.71213042582
5	95987	3097.63589219732	1.71213015088
5	96220	3104.28197392703	1.71213039971
5	96554	3111.05946145799	1.71212979124
5	96712	3113.04127285259	1.71213133861
5	96826	3115.42887099464	1.71213000401
5	97008	3124.40656390243	1.71213358462
5	97136	3126.45004801861	1.71213062766
5	97386	3134.35409652043	1.71213030375
5	97529	3136.57561255705	1.71213208623
5	98066	3148.64398556342	1.71213022338
5	98260	3153.43785125405	1.71212972058
5	98569	3170.740400018	1.71213010688
5	99008	3178.15689808323	5.99872422123
5	99114	3179.63199922948	1.71212963425
5	99537	3196.84263675697	1.71213058764
5	99816	3212.10832277485	1.71213010989
5	99914	3213.81288999687	1.71213119024
5	100185	3218.80153126377	1.71213005988
5	100996	3257.08248639461	1.71213320101
5	101127	3261.84893888579	1.71213207755
5	101256	3276.26395039773	1.71213073858
5	101599	3279.66951668631	1.79650622839
5	102051	3296.12519157062	1.71213039971
5	102195	3299.39311855207	1.71213060972
5	102408	3307.60753093689	1.71212979124
5	103089	3326.73864175683	1.71213022338
5	103381	3330.66892761906	1.71213000401
5	103569	3336.48135021725	1.71212972058
5	103722	3339.10426844991	1.71213208623
5	104107	3350.85618297747	1.71212963425
5	104526	3356.63213144623	1.71213062766
5	104825	3364.60513775581	1.71213133861
5	105368	3391.9935018319	1.71213358462
5	105745	3400.60306061563	1.71213005988
5	105948	3405.09096541425	1.71213032208
5	106177	3409.9566654973	1.71213010989
5	106420	3432.78211267766	1.71212969692
5	106683	3441.9880716166	1.71213207755
5	106949	3446.69308776689	1.71213069701
5	107270	3464.43500556328	1.71213073858
5	107391	3467.72328613498	1.71213015088
5	107777	3488.08542259327	1.71213262646
5	107995	3494.02516495985	1.712130054
5	108333	3498.4837835935	1.71213026543
5	108525	3506.26526051657	1.71212979124
5	108928	3515.5109595588	1.71213250801
5	109155	3520.07452443608	1.71213010688
5	109490	3527.25207799872	1.71212972058
5	109705	3531.54956467458	1.71213062766
5	109833	3533.73930663139	1.71213109963
5	110661	3557.59831634397	1.71213133861
5	110879	3560.88205259202	1.71212963425
5	111040	3570.03389751333	1.71213119024
5	111160	3581.06632367364	1.71213032208
5	111433	3583.99338213912	1.71213010989
6	5539	94.54931746472	72.387925257616
6	10841	276.64995646112	1462.6956890036
6	16622	476.09297994694	172.51840453921
6	23429	697.98441111997	258.17265609774
6	29395	901.70292034103	14.308976869233
6	35890	1117.61370788911	31.094701153953
6	41432	1307.95870879071	205.54473947032
6	47346	1499.12556060553	521.00295751197
6	52978	1673.83924088113	494.33290877908
6	58593	1855.76736053963	615.18079190838
6	64826	2057.70330615943	883.60690532691
6	70263	2251.91733404615	1157.228069138
6	76289	2436.64554733154	1037.0678058329
6	81717	2613.86784067746	824.03365151293
6	87690	2804.99039192929	428.00401452735
6	93890	3009.46237472256	193.40328542405
6	101313	3276.89286696519	135.05521341406
6	107409	3469.02381785583	20.846702128782
7	5670	115.62750090568	1831.7748616967
7	10975	292.50340461894	209.71325404997
7	16759	480.51201126493	1563.5119399758
7	21990	658.38377148511	1437.5387046708
7	28474	870.7703635748	8.0519323238649
7	35384	1097.00251010695	143.695415837
7	42360	1332.1816399611	1025.0689274461
7	48460	1524.94570629718	910.24473760287
7	57525	1826.96053535528	56.768067762455
7	65087	2059.57050167295	153.46611667482
7	70157	2250.68028909776	394.81512910039
7	75808	2423.64450628724	820.48800006164
7	81256	2609.82540605425	948.03688654883
7	86964	2786.04451137073	95.483823402259
7	92448	2968.03751125245	189.1688522631
7	98105	3151.72572153347	497.20978514617
7	103470	3334.76922049667	182.2533292321
7	109339	3525.53994827814	339.43162318717
8	5801	184.90576191681	150.04497666381
8	12036	373.23865694642	80.771364896778
8	18093	559.37044715494	136.11920100261
8	23825	734.5176809165	1485.0197443143
8	29873	920.84425319324	79.144706457463
8	35757	1108.95308911422	751.12764248582
8	40952	1280.61248010267	1631.7396112383
8	47215	1486.65016870317	596.06951717727
8	52512	1663.75163973716	314.45163498418
8	58035	1841.30153680549	167.35679852571
8	63825	2035.77921459556	652.27954301482
8	72239	2309.38133160458	513.6270590786
8	77272	2489.94050520736	1847.2587052755
8	83097	2674.81420156777	16.734455259001
8	88835	2866.07367968617	42.949836979397
8	94499	3040.17195845447	249.40607839121
8	100030	3217.08940120389	422.41953486967
8	105542	3398.89093055575	2431.0038674108
9	5854	185.03018367769	170.02318301046
9	11723	358.36241209486	27.83654558962
9	17744	533.9606689499	1640.2616268126
9	23691	712.10628608055	421.00013252644
9	29526	909.14282583555	763.7738136473
9	34774	1081.83491281301	210.31761436959
9	40064	1255.65422631081	295.05435777206
9	45196	1427.75589547846	1204.1694891727
9	51136	1617.89993426785	206.90327324127
9	56693	1810.60395772167	534.28836694864
9	62652	2004.46966784658	243.20323151918
9	68835	2197.4096933012	587.64381489576
9	74314	2385.22152261027	50.603448003065
9	79508	2557.86556103186	450.99389763522
9	84998	2742.1940184449	857.49956758964
9	91041	2939.51806030841	809.12105611679
9	96858	3122.69443031781	282.16380510218
9	105112	3390.28136824728	400.9737800075
9	111283	3583.60921460542	402.15234258705
10	6057	186.96903208077	1018.4978466776
10	12630	388.05756319809	657.3606458323
10	18146	560.92163217033	96.178073633177
10	24945	777.79713391038	827.95489489891
10	30850	959.1747368576	1293.6419214156
10	36985	1162.45582702036	168.34865937861
10	42722	1340.25654544895	48.73009191035
10	48219	1519.47145650194	593.84215784423
10	53892	1712.12619777981	422.45822346667
10	59587	1888.37264323283	144.03113940466
10	66740	2130.21750435374	568.18855630514
10	74535	2394.43605532754	1201.2052936752
10	80419	2585.5376261188	1.5036885939245
10	86262	2776.33123293242	614.81626596118
10	91709	2953.12622725056	882.36425960209
10	97010	3124.73791739095	1769.4491213652
10	104297	3354.92000081857	987.82522013391
10	109576	3529.83743404692	930.73044871675
11	6110	187.14124837356	43.276168021268
11	13598	397.49124888672	158.65785497622
11	19107	585.11817213133	1097.6251289269
11	25765	795.31352231691	1394.8976486902
11	31206	967.19830680006	623.96453241711
11	36451	1140.13946724651	28.488289156589
11	43144	1359.9603038501	768.65865142315
11	49286	1550.91370474417	1532.0426991178
11	54979	1740.56106895987	163.33404722309
11	60280	1912.42119753914	221.0551893891
11	66127	2103.55088022327	279.40054008466
11	71834	2299.08227331853	470.20499635324
11	78751	2529.11479612991	378.37737983342
11	84777	2730.87238384016	563.28016433506
11	89879	2906.2118370668	1586.679542915
11	96243	3106.85376531762	154.5475332664
11	101719	3283.31844723631	826.80356915262
11	107545	3481.52217881565	108.97162654968
12	6302	191.11453111035	192.87129231686
12	11854	367.69941391334	728.48154283419
12	18270	561.52150406403	180.94514640825
12	24083	737.87819547249	2049.8845634869
12	29633	914.6062742318	480.01340412829
12	35017	1089.39765353846	395.10850541791
12	41083	1293.02927206189	645.93289761519
12	46615	1469.18081706229	919.40654208103
12	52355	1662.90349855868	2911.0770405349
12	57931	1840.07642004766	403.29505804374
12	63483	2024.21576311555	241.4143605208
12	68977	2207.69372550436	243.98701099473
12	75914	2424.71345669268	2726.1466954397
12	81016	2603.66231004015	41.573476330512
12	86661	2780.51649188784	1331.6822328285
12	92152	2960.16474471691	2206.1508935409
12	98585	3172.158173862	947.00907571732
12	105829	3403.37883509217	581.95759967116
12	111049	3579.35419335156	675.01284609386
13	6357	192.67395739329	129.33404284699
13	13130	392.69502960705	435.22866214503
13	18568	567.26003910062	486.68659898969
13	24348	742.92066307246	508.74167211941
13	30377	945.31154882464	480.62836903731
13	36395	1138.95914471194	70.40482818434
13	41661	1311.2964904681	201.16008403993
13	49400	1553.15823796953	723.11162653797
13	55221	1749.79513712339	636.70052723986
13	61644	1965.76889264769	213.62861158963
13	67239	2139.20718900942	435.73384433476
13	73330	2355.05598325473	646.99191603203
13	78961	2531.15013222642	531.31880255708
13	87154	2791.82240719771	2025.8610980406
13	93218	2979.52520812731	196.54813091633
13	98160	3152.63293278943	25.24308116283
13	103728	3340.43037063644	219.02177967418
13	111530	3593.27254914578	27.086124189521
14	6539	194.55994898597	185.37189855771
14	14835	425.76661286158	115.06505384837
14	22857	680.36918512633	33.62345717356
14	27771	852.79918620064	431.87256398382
14	34721	1081.66237401622	245.75117678259
14	40403	1259.21731647388	36.810236254408
14	47103	1478.5186154391	716.29454062136
14	52188	1651.04286655319	89.51476115308
14	57660	1832.69603265492	924.20125784801
14	62970	2014.12213470509	1511.3803959577
14	68253	2189.11223916574	61.380229303433
14	75362	2409.45797634396	726.58491575287
14	80652	2587.80514034194	194.2639001657
14	85588	2759.18263705552	371.51355365977
14	91416	2949.31129380769	332.20309708013
14	99918	3214.29761936064	1192.5685724657
14	105962	3405.19194703608	531.69586084356
14	111173	3581.93321757995	18.118331014906
15	6593	194.85587430497	329.93892329605
15	14941	426.53116558715	362.73394280754
15	20590	618.42469505772	45.002752279588
15	28843	879.62465796109	560.86663942237
15	33744	1053.3548446659	665.16431555747
15	40709	1267.88931454329	1390.1935077906
15	46502	1465.65359710507	151.13623193684
15	51805	1644.02139524402	712.52382258874
15	57407	1823.36089868672	264.66509319608
15	63372	2020.13562472283	180.14608901184
15	69215	2215.11361552042	168.50827975857
15	75254	2408.45759345601	180.81693209326
15	81309	2610.50171500349	373.7266788548
15	87821	2811.70761339954	55.4005480554
15	93357	2984.46190051574	1.3133342058411
15	98638	3172.50575382201	35.199040964
15	105218	3391.60300582375	244.24874463903
16	6646	195.16063570526	49.163770959696
16	12276	377.39255012439	80.766030423268
16	21750	648.00382171859	271.0024928407
16	26957	827.83182873552	85.958875962345
16	32221	1008.87056572527	735.16165071391
16	38100	1195.33584212623	1083.4053072619
16	43754	1374.72359529514	434.97135584151
16	49778	1565.36252524338	355.08007944637
16	54850	1737.79989022664	364.75793586699
16	60458	1913.66897333713	190.51620747012
16	65800	2093.06113915071	93.30383172817
16	71253	2281.4772732614	322.71231121973
16	78569	2523.77158823214	768.6870376821
16	84059	2705.46790382604	829.79888514042
16	90248	2916.2112020015	1193.1276787267
16	96112	3102.56984352732	1429.8001351566
16	101945	3294.41306117091	289.92444372013
16	109951	3543.98691346678	39.942465576674
17	6701	195.65420882039	502.04792433053
17	12220	376.49468657681	632.63520855751
17	17980	548.94494199598	259.53520749183
17	23878	735.23477353779	197.82325462176
17	29688	915.75649920319	226.15768521517
17	36102	1127.60906486944	24.581632602597
17	42018	1326.88853838095	420.11987048064
17	48515	1525.61188829369	204.89491022919
17	53786	1708.23442984101	951.39421417487
17	60070	1910.63923952362	461.91131960243
17	67292	2139.33177770646	171.42743426369
[...]
27	74643	2396.04313630198	1447.8770148198
27	81971	2618.39810044452	198.94636547087
27	87258	2792.19818713461	134.31417005436
27	92737	2972.36261616041	37.989576342979
27	97917	3146.93185534004	1895.8494344315
27	102992	3325.02651153345	718.63600956922
27	108778	3515.2148711521	330.05353229741
28	7770	211.94786876471	165.66155209745
28	14054	408.28742378091	5.5177799332455
28	19054	585.05412836755	546.25339759011
28	24816	772.12942496417	913.4455310734
28	30906	959.7345206589	299.89836453739
28	36267	1134.41267479606	521.58358563187
28	46025	1455.50721869215	490.66201223289
28	51300	1627.46710610797	1620.5906261242
28	58354	1850.80988580783	548.94433257859
28	64623	2051.15162551054	1276.1182123667
28	71509	2286.06661041396	1029.2380348656
28	76792	2457.55970965187	938.57948738426
28	82835	2659.21859671316	21.950657933976
28	88302	2837.52040347655	655.04578941422
28	95279	3073.07457584298	723.86235559068
28	102072	3297.68098794235	359.00154780623
28	108073	3495.67538393471	278.54628582247
29	7980	214.45006980126	3572.2064708763
29	13826	405.91173912888	200.52189404798
29	19851	608.72677267858	3374.4173025467
29	28019	858.81395900452	484.87732392022
29	34363	1062.56544268846	2989.7175632204
29	39631	1241.990965964	671.57325215575
29	45572	1433.1440977253	102.12723064828
29	52670	1664.64781634687	182.83847843891
29	59534	1888.15470768733	543.77585447238
29	65311	2064.02597685473	2308.7396788707
29	71781	2298.56070002908	670.65538805948
29	77504	2493.20164337669	940.1937483687
29	83466	2688.89584413648	603.47908509028
29	89767	2901.31697135436	1725.6537186715
29	95403	3073.36519281566	887.47891322308
29	101828	3285.8331738483	268.15483060425
29	107652	3486.37328996681	443.83571990478
30	8036	215.44313871576	80.287647777127
30	17067	484.53927686276	386.36545056384
30	22560	674.86600093006	18.621589607132
30	27962	857.90718322231	272.24314448957
30	34537	1075.33251787287	228.2133242114
30	40570	1262.36777024528	210.07259115823
30	46159	1459.56163854418	657.0182795925
30	51964	1645.6770768604	432.73907339506
30	57097	1819.17950947053	7.9708936879195
30	63986	2037.74330259007	392.71953914299
30	70524	2254.74598444895	390.75068053864
30	76416	2440.30248285728	2413.2576667569
30	81434	2611.88805259761	198.89438781606
30	87559	2798.98836666636	43.888601389593
30	92981	2976.33594699675	152.18955947953
30	98955	3177.91986959523	500.96227432959
30	103954	3349.14405334322	2042.9218828424
30	110723	3559.16992295777	1267.4269541895
31	8222	217.5861147801	251.54735456291
31	13344	393.62308174661	288.26189983103
31	20699	625.26681015119	1015.2225227792
31	26129	808.87528627637	263.26126058298
31	31948	1004.01325351066	288.98463323936
31	38474	1200.23103011951	138.51515403203
31	43629	1374.36083752298	160.85483590773
31	48998	1546.36777665661	279.87606997642
31	54351	1719.46701183417	307.94809100685
31	59830	1896.93015382745	351.93292865053
31	65479	2069.08372150057	2.7991303139427
31	70775	2265.04617949439	80.109215013431
31	77559	2494.53373004985	476.94936786437
31	83357	2684.888901135	97.935521681944
31	88782	2865.8913310575	244.4505633535
31	94843	3045.58622433268	519.19278175979
31	100086	3218.28406422901	221.16282538535
31	106212	3427.87357090691	28.200545827557
32	8335	219.85091452139	164.43754925722
32	13290	393.44272902877	1564.1258938077
32	21489	636.49748376524	843.02724844328
32	27428	847.65561546244	366.39360620742
32	34668	1081.28972262411	48.199729767867
32	40009	1254.44059296284	797.09215404656
32	45900	1453.56306913561	1010.3382321446
32	52565	1663.8588500265	29.529060376041
32	58729	1859.64978943182	638.00533866032
32	65425	2068.28527205749	390.04768389942
32	71646	2290.32818300043	1965.5650499745
32	78697	2528.46556800974	110.67945563112
32	84243	2712.16341748873	2153.1275460017
32	90855	2936.80134778369	300.59923345196
32	97273	3132.64196621668	490.9345331961
32	103117	3327.60760819764	604.8843030075
32	109039	3518.36759273655	1404.8124552242
33	8388	220.09664809341	686.44155164663
33	13073	391.48553959409	366.56719125336
33	18747	569.05796207989	250.53652975412
33	24221	741.19848452672	136.00337879282
33	30242	934.22882745263	82.61579466247
33	36742	1154.81492141803	1487.1928771731
33	42127	1329.30843724235	117.17357531946
33	48817	1542.47155246339	96.130550022543
33	55490	1758.25366664417	381.95668812878
33	61058	1930.55928764679	357.57373173689
33	66869	2132.57373416428	1362.5686280788
33	72423	2315.1470096377	419.45913134727
33	78326	2516.65340392392	787.58540605952
33	86768	2781.38382506721	1196.0999932787
33	92394	2967.02176346507	1420.2016632016
33	99013	3179.02159253355	1309.3409577005
33	104007	3350.63362458473	430.07720715381
33	109392	3525.83580800324	43.912423945199
34	8574	222.78676446652	189.32606138446
34	14488	421.09716336853	74.223985578916
34	20857	628.08344984773	149.82870975571
34	26904	827.71514849511	448.18258206577
34	34199	1060.69945858435	1198.8002259468
34	39523	1240.13654555747	25.460201471414
34	45250	1428.62706821309	101.52083000651
34	51510	1631.78427588195	196.76556223876
34	56451	1805.66972437283	130.69659192787
34	63023	2014.12303556781	742.25757618852
34	68542	2193.61980553068	1100.396690888
34	74993	2405.94229260776	2679.3896661098
34	80203	2581.59585993937	244.02333646236
34	85811	2769.16208157562	392.49292576784
34	92872	2974.83712269381	963.66570524667
34	98341	3155.12421147001	1221.8423233071
34	103277	3329.47867349245	269.48971024047
34	109228	3522.73939800426	251.500197346
35	8633	224.04860521368	1520.5825319453
35	14432	419.55584949855	133.25073261961
35	19294	594.89840629487	294.41843300624
35	25188	785.08815612092	86.510359776899
35	30724	956.62139979424	181.33188988264
35	41485	1309.11882049159	61.246881554783
35	48039	1515.94400996808	286.33595846189
35	53999	1713.57580000485	69.533666288792
35	60869	1927.45851607111	438.02622274757
35	66335	2106.02046400231	486.20228560591
35	71382	2284.33148790704	256.88983468403
35	77050	2468.90627895801	63.014201211346
35	82966	2667.44841605054	247.76865698785
35	89509	2890.78830609896	276.73436732956
35	95742	3088.7697685398	202.78889721097
35	102827	3319.28428618268	580.59693496516
35	108020	3495.52076260879	404.41491758203
36	8686	224.35368757844	486.16312613875
36	15406	438.13666059802	272.20017023671
36	20009	610.80004085882	531.05914576415
36	25241	786.10283079718	24.282501417945
36	31716	999.91492680038	134.51660528653
36	37868	1193.33477683127	191.21295139078
36	43468	1370.79071170053	128.46238320944
36	51751	1643.65406688189	144.04934052076
36	56936	1816.45577816379	2.9263509012039
36	63250	2016.6107331518	153.88311421147
36	68308	2190.24758075421	752.03541181786
36	73803	2366.14870909877	814.19668465622
36	79799	2567.48498498249	1129.5426446191
36	85051	2743.42704701758	77.806371386396
36	90512	2925.1266374691	166.40428592861
36	96298	3107.63395182146	42.904682789236
36	101608	3281.56445477715	66.181816401598
36	107041	3454.12436667613	251.40974967161
37	8902	226.6563682679	671.49444542181
37	16253	468.71631940563	82.758465600994
37	22114	661.06171913691	336.12590605113
37	27717	852.39364810178	155.70225922257
37	33224	1039.01121001011	960.09033828089
37	38759	1215.97899715368	1757.2178146828
37	44354	1391.37387577146	213.58574640676
37	49906	1568.20707258426	179.60649323049
37	55626	1776.76568808927	209.76214404643
37	61507	1957.80461498157	8.4905198020136
37	67108	2136.95931978571	260.73219624629
37	72900	2327.4434530484	144.99233307065
37	79854	2568.24811625627	57.136333171995
37	86019	2771.72693069685	3.9177662398948
37	91469	2949.81508326391	1065.3582038759
37	98459	3169.02826991112	988.74461823117
37	103783	3340.77898440254	435.28944316695
37	108986	3518.3623943292	352.7747518891
38	8959	227.78002240766	819.99921391053
38	13709	399.23164320945	574.98643813357
38	22742	677.28186617489	829.80713851826
38	27607	850.06318898665	121.03940602843
38	32753	1022.08005809245	451.11422500038
38	38890	1223.04663738264	76.694857748862
38	45356	1430.05990475516	1253.6128998864
38	50464	1601.54771694227	733.26878643064
38	56751	1812.27428939019	276.7366916662
38	62142	1992.85480675186	514.67161737251
38	69102	2210.32693971582	25.930143871646
38	74202	2381.54713567188	103.5699361299
38	81069	2603.85335111935	164.41131097774
38	86553	2779.22633249199	1635.8251565449
38	91817	2953.97577016662	636.12108552108
38	97532	3137.40456875424	29.953880588972
38	102442	3309.6178371704	177.8003432858
38	110430	3554.0038481053	584.64872580785
39	9150	230.83308837537	647.58148405651
39	14189	411.6174125295	1330.6732373395
39	19449	598.30565301902	521.501449115
39	28955	883.61086430348	381.64205154927
39	34255	1061.34965871326	118.4525042909
39	40349	1258.97740501663	429.44602312719
39	46909	1473.71416768167	79.196286923478
39	53215	1683.63731752972	224.94439193355
39	59350	1879.18353598589	1135.9888776198
39	64983	2058.91650637836	91.567982382762
39	70579	2255.49987472191	977.43048865208
39	78857	2530.27844714779	39.727797656715
39	84419	2714.05589121083	959.26904747365
39	90007	2908.33639398981	14.539550596936
39	96003	3099.15217230596	864.06232054167
39	102495	3309.92615248214	504.87131075706
39	107783	3490.26247303162	421.12809059741
40	9263	234.52362052946	28.318834919206
40	16440	473.28064710273	496.24473424123
40	23562	707.25886628815	507.77401407997
40	29009	884.82028810676	674.73348326764
40	33985	1057.07708334708	592.90134877132
40	39368	1238.11236015354	29.832602960654
40	44670	1411.95237744483	29.308173558456
40	50517	1601.5933392606	25.068720871436
40	55754	1781.26162242436	32.259730263865
40	61775	1979.2526400564	981.26949254764
40	67752	2155.52041965864	189.04588596934
40	73090	2334.15774495828	955.75775547663
40	78214	2511.52487288951	148.81297825957
40	83520	2689.86528534719	766.84531278705
40	89640	2898.2913352084	301.33998124928
40	95069	3070.86076362893	235.40535587649
40	101136	3274.55181965915	1192.2034443849
40	107150	3462.7228748247	256.87062154334
41	9392	236.884328628	227.86442621568
41	15700	446.87509868099	312.95864762297
41	21023	632.63539648213	93.3006286757
41	26291	820.53148179176	422.98867084509
41	32916	1023.88750365229	514.34217396789
41	39877	1249.18838719019	583.12203649996
41	45070	1424.97759053757	362.26041396707
41	51911	1645.51188659137	744.21871302154
41	58228	1847.86245907878	959.66986795574
41	63880	2036.62117490586	1053.803226032
41	69323	2216.76878421204	513.53897351787
41	74590	2394.83109831555	195.83675753972
41	79746	2567.14265168174	503.54655737075
41	85320	2753.53947157291	77.092096426411
41	90625	2933.29625337538	27.096997267266
41	96455	3109.34733166675	425.74505183039
41	102260	3305.89540114565	708.80869345415
41	108376	3504.55313072533	555.20587664472
42	9527	241.33442422646	193.33631188351
42	14776	424.43853421236	167.15775725974
42	20752	626.4390286959	506.41687324801
42	26395	822.1403804848	199.58402060194
42	33115	1033.12340576278	240.12160495921
42	38644	1204.82059689405	152.35905622249
42	44163	1386.43386760967	272.13633953842
42	49644	1560.47599872844	323.60881456838
42	55386	1756.14873976444	696.9948036542
42	61382	1955.38034420134	371.74603746046
42	66635	2126.83275042321	179.67834382189
42	71940	2299.19022835995	131.38862892656
42	77163	2478.28318474932	259.94167250039
42	83813	2695.04030653366	315.54055577038
42	89238	2873.00963315523	149.33667824731
42	95636	3084.50530072475	1736.0297621911
42	102551	3311.16709099512	470.13267198712
42	108608	3507.77145776538	79.79114480115
43	9581	242.49196262258	302.75463895127
43	14308	417.68534563708	293.12512869725
43	20118	611.81447190353	194.16163394063
43	25421	789.75438772315	2281.9233778024
43	32524	1018.62794765801	404.71578532316
43	38156	1196.74491805694	1118.409738766
43	44798	1414.06841074752	859.59673377785
43	50410	1600.40404544773	273.96337506108
43	58408	1852.36332167078	337.66436597419
43	64290	2048.86963150846	350.52120553403
43	69917	2232.70386906682	155.7845015123
43	75561	2413.98904071535	1710.1427168002
43	80764	2589.65926234947	222.21605732104
43	86076	2773.27416243713	2418.8737806262
43	93728	3001.34445140833	95.727120956623
43	99665	3210.39619266496	576.3295667525
43	106075	3408.24453538741	246.29891154235
43	111228	3582.28125202923	80.804424418599
44	9760	244.9271176243	45.799467739334
44	15106	429.235376508	278.19054552226
44	21077	633.2030461395	1120.2782919195
44	27151	831.79213377996	470.48394431984
44	33877	1056.16770571964	341.6652284299
44	40189	1257.08732942976	64.945332343894
44	45516	1431.8626774374	273.27593816914
44	51247	1626.07681492743	1339.5134436104
44	56507	1806.11364195689	1953.6177037846
44	62543	2000.31702244234	67.864201738997
44	70041	2234.92350276599	85.179349964788
44	75098	2407.41416306161	556.18374337763
44	81776	2615.46401359652	135.3991791078
44	87098	2790.28807396984	661.41111531393
44	92279	2962.61281724916	373.03828689566
44	99249	3181.47945846217	194.55004094432
44	104702	3364.3082079549	29.55589167794
45	9982	248.29612599791	149.4479023839
45	15576	444.8588567377	911.04684586593
45	21130	633.58056358301	1240.7741891883
45	27204	831.88307701205	348.81459391079
45	32058	1006.95479322305	51.531143818232
45	39123	1232.28638411905	2986.2244084715
45	46286	1462.17608721864	45.863137104191
45	52459	1663.59609999251	110.31904012763
45	57876	1838.84989353802	360.01963516432
45	62915	2013.72469930818	240.95517633918
45	68597	2194.71341768269	328.0880188761
45	73919	2373.03778870726	696.90664700177
45	80905	2594.38219156446	416.4149956965
45	86372	2777.65953659297	371.95141923264
45	91363	2949.03280837974	33.933638347999
45	97590	3138.97868534295	110.17535980686
45	104242	3354.37754274259	581.01292548968
45	109707	3532.02717553176	351.5883994768
46	10154	262.91925997279	132.25008580329
46	15249	435.92518014468	228.35546037504
46	20063	610.96957118956	422.3128113694
46	25608	793.2034482406	605.52401337523
46	31337	982.59128811318	757.32512851523
46	36875	1158.11636151969	806.67263979649
46	42595	1334.50337481996	618.66259338102
46	47632	1508.38035956509	74.821537188161
46	53162	1682.85252813538	1837.2284242825
46	58913	1863.13647810167	1197.5957594917
46	64773	2057.04938701601	493.93093775698
46	72846	2327.02659382865	648.60532101977
46	77892	2503.61409696343	192.1580393032
46	83225	2679.50370452507	498.4644348418
46	88888	2867.08625806859	226.48915973068
46	94678	3041.90846999332	1023.0727667801
46	100278	3226.69589799355	96.170288568244
46	105646	3400.00089900449	867.03260695913
47	10333	265.25532138716	535.2163717101
47	16939	482.83457239881	33.530521509499
47	23079	691.43706281165	81.471021510323
47	28360	865.77792144618	83.81684118309
47	33610	1050.05887283368	2584.594380167
47	39742	1245.32149026199	315.98904620759
47	44932	1417.49400835615	125.13621476856
47	50305	1597.31037211437	295.4099381904
47	55998	1794.28237868479	24.446717692072
47	62196	1994.00001200121	1283.2862812761
47	68120	2184.22486807363	1210.5965538623
47	73623	2363.27171671265	868.03945863506
47	79377	2549.98528253687	431.99106304815
47	85216	2751.25705327173	1169.1576830129
47	91762	2953.42818180351	481.09759069265
47	98819	3174.94535776782	40.944127231817
47	105489	3398.27774864216	22.145375053925
48	10389	266.65848814672	480.2837581675
48	15838	453.38563593598	62.915232029353
48	21638	641.88734326577	27.323479978709
48	26499	822.43505101528	195.62343660044
48	32404	1011.60565445815	92.607664352855
48	37708	1188.6161480471	250.82999627089
48	46343	1463.77624285145	417.39690128847
48	53268	1683.7434793365	173.7996062831
48	58857	1861.72107902027	867.01983283323
48	63670	2033.72334068475	376.2039701023
48	70210	2250.78103949464	133.79645239443
48	76677	2449.77942453966	2665.6722101706
48	82377	2637.50400270863	683.52358005114
48	88057	2819.45184853217	170.04254145786
48	94152	3033.58958443683	395.55036036744
48	100627	3246.20721078306	116.46438652101
48	106849	3446.30635662961	860.3968515769
49	10575	270.03969157823	1122.3528760173
49	16387	472.58708175583	869.50643225458
49	21803	648.7536065093	294.79339931451
49	26552	822.45384167153	230.35407095302
49	32115	1008.14392207746	11.703701017581
49	37464	1181.45643813121	62.659922094766
49	43575	1372.75695943355	251.79511598741
49	49157	1548.90230864927	31.348340315038
49	54722	1735.93104693897	66.785021598414
49	60176	1911.64761567098	858.11450440568
49	65853	2094.51321132134	1091.8051279349
49	70881	2266.52272852113	1146.1865217232
49	76923	2465.41319362335	44.752258364356
49	82592	2646.6857057342	159.77254045447
49	90381	2920.53568730077	113.68573615263
49	95876	3095.92376204644	389.57401060735
49	101368	3277.87301045792	424.94567957655
49	107277	3466.0111559841	444.59716130356
50	10707	272.83280659302	385.16063437228
50	16100	466.45246175684	148.11390772178
50	22434	673.22663725511	1095.1560002434
50	27375	846.26786054444	611.15253926499
50	32577	1019.49971485025	217.74095235831
50	37814	1193.15667498919	76.338456714505
50	44299	1389.88098956115	80.730285678502
50	51004	1612.25968597959	790.41518788653
50	57202	1820.88644173214	70.075221023354
50	65957	2095.40327490812	148.1447602025
50	71124	2276.60040511839	301.1663265037
50	77325	2490.45892303959	489.18751931167
50	83702	2693.39024886149	354.08800935857
50	89346	2876.33905002666	242.34502612616
50	95122	3071.61380730206	307.80325307961
50	100846	3255.3703531936	973.78351969324
50	106742	3444.98095706988	435.66180796198
51	11102	295.63178162776	12.967636739594
51	17557	513.10579227547	196.35318395892
51	23306	693.25768166173	747.2613307561
51	28601	872.65300971301	169.05255965002
51	35070	1090.67424670697	965.51904324886
51	40843	1274.48162764614	354.04757261764
51	48350	1521.94374092644	361.26917509322
51	53946	1712.98992289842	353.8294331774
51	60123	1910.91609556396	616.20063180597
51	66180	2104.25426065548	74.617873580102
51	72367	2314.04148066366	1486.7559810141
51	78381	2517.54250283955	892.46612383156
51	84190	2711.18446160327	418.66870474852
51	90912	2938.41654036745	1219.3506296285
51	97760	3145.16326322347	571.82779281633
51	102774	3318.7929894159	507.16058904981
51	108429	3504.62498596605	26.874614933679
52	11215	302.81529367981	154.80368268956
52	16815	482.18341647585	883.92780913775
52	22252	668.12260090423	1286.925466707
52	28714	876.78034809539	384.69055077958
52	33931	1057.05848161327	2167.3528586507
52	39176	1232.68322006198	1017.0881333706
52	44544	1408.82029351641	372.97033632728
52	50174	1588.10813257913	429.76595023585
52	56105	1799.48493325704	297.62520575998
52	61904	1984.02818047946	2563.8671884752
52	67861	2174.54077583987	747.21761072053
52	76155	2430.19230893192	596.96734562801
52	82109	2626.92274924904	67.832331874177
52	88112	2820.72656956171	1148.1131819441
52	94018	3013.70718194123	22.700325236895
52	101260	3276.80503249245	1231.0744568042
52	107890	3492.31303490585	530.94861880657
53	11268	302.93533712259	952.48015701609
53	17264	492.37163013809	1161.0374232349
53	22380	672.82895073287	318.08293608358
53	30006	928.18250669701	1644.272713747
53	36616	1151.85426559336	1161.5734279548
53	42416	1332.70732354071	648.32660091952
53	47685	1508.70139918318	365.08374519374
53	54463	1726.74658753717	723.2120012983
53	59937	1901.81409152304	704.35814797665
53	65669	2080.45653379019	76.195945322426
53	72719	2323.64305147465	745.64046676084
53	77838	2502.64111892889	46.595785962184
53	84724	2730.45173820437	328.45036526663
53	91239	2947.12270321534	2041.5603138948
53	97146	3130.23228697969	21.956184064966
53	102207	3304.83621352457	3431.2691141665
53	108129	3496.77165332807	331.64226121769
54	11564	338.74879782873	348.95571884592
54	17504	513.09775849169	474.83927008612
54	23026	691.06534915357	87.360246507917
54	28234	863.75961194337	255.52433410006
54	33355	1044.90018323537	545.44004736584
54	42181	1329.90088238284	22.653415576117
54	47505	1505.14025499768	514.65300148222
54	53109	1682.58245415709	141.48539556152
54	59481	1887.34524303312	384.26572660377
54	64930	2058.82322836934	1167.7183638289
54	70828	2265.08764716811	1450.9876499076
54	76552	2447.50363676636	82.166984642638
54	82486	2645.48584723928	1392.3799420862
54	88542	2853.80187824326	667.46535633152
54	94205	3034.07365514687	997.45672780129
54	100492	3238.94475940625	8.673874769452
54	106317	3431.06998298074	1632.2123701786

