version 3
run N50-13-20260518-02:26:46-159863
attr configname N50
attr datetime 20260518-02:26:46
attr datetimef 20260518-022646
attr experiment N50
attr inifile omnetpp.ini
attr iterationvars "$0=\"avg\""
attr iterationvarsd avg
attr iterationvarsf avg-
attr measurement "$0=\"avg\""
attr network test2.LoRaNetworkTest
attr processid 159863
attr repetition 13
attr replication #13
attr resultdir results
attr runnumber 13
attr seedset 13
config extends General
config **.numPatients 50
config network test2.LoRaNetworkTest
config sim-time-limit 1h
config warmup-period 60s
config simtime-resolution -11
config repeat 30
config rng-class cMersenneTwister
config record-eventlog false
config **.numPatients 20
config **.HospitalServer.app[0].queueLength:vector.vector-recording true
config **.HospitalServer.app[0].urgentWaitTime:vector.vector-recording true
config **.HospitalServer.app[0].normalWaitTime:vector.vector-recording true
config **.HospitalServer.app[0].urgentEndToEndDelay:vector.vector-recording true
config **.HospitalServer.app[0].normalEndToEndDelay:vector.vector-recording true
config **.loRaNodes[*].app[0].emergencyVariate:vector.vector-recording true
config **.vector-recording false
config **.loRaNodes[0].**.initialX "300m + uniform(-10m, 10m)"
config **.loRaNodes[0].**.initialY "250m + uniform(-8m, 8m)"
config **.loRaNodes[1].**.initialX "450m + uniform(-10m, 10m)"
config **.loRaNodes[1].**.initialY "250m + uniform(-8m, 8m)"
config **.loRaNodes[2].**.initialX "600m + uniform(-10m, 10m)"
config **.loRaNodes[2].**.initialY "250m + uniform(-8m, 8m)"
config **.loRaNodes[3].**.initialX "750m + uniform(-10m, 10m)"
config **.loRaNodes[3].**.initialY "250m + uniform(-8m, 8m)"
config **.loRaNodes[4].**.initialX "900m + uniform(-10m, 10m)"
config **.loRaNodes[4].**.initialY "250m + uniform(-8m, 8m)"
config **.loRaNodes[5].**.initialX "1050m + uniform(-10m, 10m)"
config **.loRaNodes[5].**.initialY "250m + uniform(-8m, 8m)"
config **.loRaNodes[6].**.initialX "1200m + uniform(-10m, 10m)"
config **.loRaNodes[6].**.initialY "250m + uniform(-8m, 8m)"
config **.loRaNodes[7].**.initialX "1350m + uniform(-10m, 10m)"
config **.loRaNodes[7].**.initialY "250m + uniform(-8m, 8m)"
config **.loRaNodes[8].**.initialX "1500m + uniform(-10m, 10m)"
config **.loRaNodes[8].**.initialY "250m + uniform(-8m, 8m)"
config **.loRaNodes[9].**.initialX "1650m + uniform(-10m, 10m)"
config **.loRaNodes[9].**.initialY "250m + uniform(-8m, 8m)"
config **.loRaNodes[10].**.initialX "300m + uniform(-10m, 10m)"
config **.loRaNodes[10].**.initialY "370m + uniform(-8m, 8m)"
config **.loRaNodes[11].**.initialX "450m + uniform(-10m, 10m)"
config **.loRaNodes[11].**.initialY "370m + uniform(-8m, 8m)"
config **.loRaNodes[12].**.initialX "600m + uniform(-10m, 10m)"
config **.loRaNodes[12].**.initialY "370m + uniform(-8m, 8m)"
config **.loRaNodes[13].**.initialX "750m + uniform(-10m, 10m)"
config **.loRaNodes[13].**.initialY "370m + uniform(-8m, 8m)"
config **.loRaNodes[14].**.initialX "900m + uniform(-10m, 10m)"
config **.loRaNodes[14].**.initialY "370m + uniform(-8m, 8m)"
config **.loRaNodes[15].**.initialX "1050m + uniform(-10m, 10m)"
config **.loRaNodes[15].**.initialY "370m + uniform(-8m, 8m)"
config **.loRaNodes[16].**.initialX "1200m + uniform(-10m, 10m)"
config **.loRaNodes[16].**.initialY "370m + uniform(-8m, 8m)"
config **.loRaNodes[17].**.initialX "1350m + uniform(-10m, 10m)"
config **.loRaNodes[17].**.initialY "370m + uniform(-8m, 8m)"
config **.loRaNodes[18].**.initialX "1500m + uniform(-10m, 10m)"
config **.loRaNodes[18].**.initialY "370m + uniform(-8m, 8m)"
config **.loRaNodes[19].**.initialX "1650m + uniform(-10m, 10m)"
config **.loRaNodes[19].**.initialY "370m + uniform(-8m, 8m)"
config **.loRaNodes[20].**.initialX "300m + uniform(-10m, 10m)"
config **.loRaNodes[20].**.initialY "490m + uniform(-8m, 8m)"
config **.loRaNodes[21].**.initialX "450m + uniform(-10m, 10m)"
config **.loRaNodes[21].**.initialY "490m + uniform(-8m, 8m)"
config **.loRaNodes[22].**.initialX "600m + uniform(-10m, 10m)"
config **.loRaNodes[22].**.initialY "490m + uniform(-8m, 8m)"
config **.loRaNodes[23].**.initialX "750m + uniform(-10m, 10m)"
config **.loRaNodes[23].**.initialY "490m + uniform(-8m, 8m)"
config **.loRaNodes[24].**.initialX "900m + uniform(-10m, 10m)"
config **.loRaNodes[24].**.initialY "490m + uniform(-8m, 8m)"
config **.loRaNodes[25].**.initialX "1050m + uniform(-10m, 10m)"
config **.loRaNodes[25].**.initialY "490m + uniform(-8m, 8m)"
config **.loRaNodes[26].**.initialX "1200m + uniform(-10m, 10m)"
config **.loRaNodes[26].**.initialY "490m + uniform(-8m, 8m)"
config **.loRaNodes[27].**.initialX "1350m + uniform(-10m, 10m)"
config **.loRaNodes[27].**.initialY "490m + uniform(-8m, 8m)"
config **.loRaNodes[28].**.initialX "1500m + uniform(-10m, 10m)"
config **.loRaNodes[28].**.initialY "490m + uniform(-8m, 8m)"
config **.loRaNodes[29].**.initialX "1650m + uniform(-10m, 10m)"
config **.loRaNodes[29].**.initialY "490m + uniform(-8m, 8m)"
config **.loRaNodes[30].**.initialX "300m + uniform(-10m, 10m)"
config **.loRaNodes[30].**.initialY "610m + uniform(-8m, 8m)"
config **.loRaNodes[31].**.initialX "450m + uniform(-10m, 10m)"
config **.loRaNodes[31].**.initialY "610m + uniform(-8m, 8m)"
config **.loRaNodes[32].**.initialX "600m + uniform(-10m, 10m)"
config **.loRaNodes[32].**.initialY "610m + uniform(-8m, 8m)"
config **.loRaNodes[33].**.initialX "750m + uniform(-10m, 10m)"
config **.loRaNodes[33].**.initialY "610m + uniform(-8m, 8m)"
config **.loRaNodes[34].**.initialX "900m + uniform(-10m, 10m)"
config **.loRaNodes[34].**.initialY "610m + uniform(-8m, 8m)"
config **.loRaNodes[35].**.initialX "1050m + uniform(-10m, 10m)"
config **.loRaNodes[35].**.initialY "610m + uniform(-8m, 8m)"
config **.loRaNodes[36].**.initialX "1200m + uniform(-10m, 10m)"
config **.loRaNodes[36].**.initialY "610m + uniform(-8m, 8m)"
config **.loRaNodes[37].**.initialX "1350m + uniform(-10m, 10m)"
config **.loRaNodes[37].**.initialY "610m + uniform(-8m, 8m)"
config **.loRaNodes[38].**.initialX "1500m + uniform(-10m, 10m)"
config **.loRaNodes[38].**.initialY "610m + uniform(-8m, 8m)"
config **.loRaNodes[39].**.initialX "1650m + uniform(-10m, 10m)"
config **.loRaNodes[39].**.initialY "610m + uniform(-8m, 8m)"
config **.loRaNodes[40].**.initialX "300m + uniform(-10m, 10m)"
config **.loRaNodes[40].**.initialY "730m + uniform(-8m, 8m)"
config **.loRaNodes[41].**.initialX "450m + uniform(-10m, 10m)"
config **.loRaNodes[41].**.initialY "730m + uniform(-8m, 8m)"
config **.loRaNodes[42].**.initialX "600m + uniform(-10m, 10m)"
config **.loRaNodes[42].**.initialY "730m + uniform(-8m, 8m)"
config **.loRaNodes[43].**.initialX "750m + uniform(-10m, 10m)"
config **.loRaNodes[43].**.initialY "730m + uniform(-8m, 8m)"
config **.loRaNodes[44].**.initialX "900m + uniform(-10m, 10m)"
config **.loRaNodes[44].**.initialY "730m + uniform(-8m, 8m)"
config **.loRaNodes[45].**.initialX "1050m + uniform(-10m, 10m)"
config **.loRaNodes[45].**.initialY "730m + uniform(-8m, 8m)"
config **.loRaNodes[46].**.initialX "1200m + uniform(-10m, 10m)"
config **.loRaNodes[46].**.initialY "730m + uniform(-8m, 8m)"
config **.loRaNodes[47].**.initialX "1350m + uniform(-10m, 10m)"
config **.loRaNodes[47].**.initialY "730m + uniform(-8m, 8m)"
config **.loRaNodes[48].**.initialX "1500m + uniform(-10m, 10m)"
config **.loRaNodes[48].**.initialY "730m + uniform(-8m, 8m)"
config **.loRaNodes[49].**.initialX "1650m + uniform(-10m, 10m)"
config **.loRaNodes[49].**.initialY "730m + uniform(-8m, 8m)"
config **.loRaNodes[50].**.initialX "300m + uniform(-10m, 10m)"
config **.loRaNodes[50].**.initialY "850m + uniform(-8m, 8m)"
config **.loRaNodes[51].**.initialX "450m + uniform(-10m, 10m)"
config **.loRaNodes[51].**.initialY "850m + uniform(-8m, 8m)"
config **.loRaNodes[52].**.initialX "600m + uniform(-10m, 10m)"
config **.loRaNodes[52].**.initialY "850m + uniform(-8m, 8m)"
config **.loRaNodes[53].**.initialX "750m + uniform(-10m, 10m)"
config **.loRaNodes[53].**.initialY "850m + uniform(-8m, 8m)"
config **.loRaNodes[54].**.initialX "900m + uniform(-10m, 10m)"
config **.loRaNodes[54].**.initialY "850m + uniform(-8m, 8m)"
config **.loRaNodes[55].**.initialX "1050m + uniform(-10m, 10m)"
config **.loRaNodes[55].**.initialY "850m + uniform(-8m, 8m)"
config **.loRaNodes[56].**.initialX "1200m + uniform(-10m, 10m)"
config **.loRaNodes[56].**.initialY "850m + uniform(-8m, 8m)"
config **.loRaNodes[57].**.initialX "1350m + uniform(-10m, 10m)"
config **.loRaNodes[57].**.initialY "850m + uniform(-8m, 8m)"
config **.loRaNodes[58].**.initialX "1500m + uniform(-10m, 10m)"
config **.loRaNodes[58].**.initialY "850m + uniform(-8m, 8m)"
config **.loRaNodes[59].**.initialX "1650m + uniform(-10m, 10m)"
config **.loRaNodes[59].**.initialY "850m + uniform(-8m, 8m)"
config **.loRaNodes[60].**.initialX "300m + uniform(-10m, 10m)"
config **.loRaNodes[60].**.initialY "970m + uniform(-8m, 8m)"
config **.loRaNodes[61].**.initialX "450m + uniform(-10m, 10m)"
config **.loRaNodes[61].**.initialY "970m + uniform(-8m, 8m)"
config **.loRaNodes[62].**.initialX "600m + uniform(-10m, 10m)"
config **.loRaNodes[62].**.initialY "970m + uniform(-8m, 8m)"
config **.loRaNodes[63].**.initialX "750m + uniform(-10m, 10m)"
config **.loRaNodes[63].**.initialY "970m + uniform(-8m, 8m)"
config **.loRaNodes[64].**.initialX "900m + uniform(-10m, 10m)"
config **.loRaNodes[64].**.initialY "970m + uniform(-8m, 8m)"
config **.loRaNodes[65].**.initialX "1050m + uniform(-10m, 10m)"
config **.loRaNodes[65].**.initialY "970m + uniform(-8m, 8m)"
config **.loRaNodes[66].**.initialX "1200m + uniform(-10m, 10m)"
config **.loRaNodes[66].**.initialY "970m + uniform(-8m, 8m)"
config **.loRaNodes[67].**.initialX "1350m + uniform(-10m, 10m)"
config **.loRaNodes[67].**.initialY "970m + uniform(-8m, 8m)"
config **.loRaNodes[68].**.initialX "1500m + uniform(-10m, 10m)"
config **.loRaNodes[68].**.initialY "970m + uniform(-8m, 8m)"
config **.loRaNodes[69].**.initialX "1650m + uniform(-10m, 10m)"
config **.loRaNodes[69].**.initialY "970m + uniform(-8m, 8m)"
config **.loRaNodes[70].**.initialX "300m + uniform(-10m, 10m)"
config **.loRaNodes[70].**.initialY "1090m + uniform(-8m, 8m)"
config **.loRaNodes[71].**.initialX "450m + uniform(-10m, 10m)"
config **.loRaNodes[71].**.initialY "1090m + uniform(-8m, 8m)"
config **.loRaNodes[72].**.initialX "600m + uniform(-10m, 10m)"
config **.loRaNodes[72].**.initialY "1090m + uniform(-8m, 8m)"
config **.loRaNodes[73].**.initialX "750m + uniform(-10m, 10m)"
config **.loRaNodes[73].**.initialY "1090m + uniform(-8m, 8m)"
config **.loRaNodes[74].**.initialX "900m + uniform(-10m, 10m)"
config **.loRaNodes[74].**.initialY "1090m + uniform(-8m, 8m)"
config **.HospitalServer.numApps 1
config **.HospitalServer.app[0].typename HospitalServerApp
config **.HospitalServer.app[0].destPort 2000
config **.HospitalServer.app[0].localPort 1000
config **.HospitalServer.app[0].adrMethod "\"avg\""
config **.HospitalServer.**.evaluateADRinServer true
config **.HospitalServer.app[0].queueSize 50
config **.HospitalServer.app[0].expo_rate_lambda 0.83
config **.loRaGateway.numUdpApps 1
config **.loRaGateway.packetForwarder.localPort 2000
config **.loRaGateway.packetForwarder.destPort 1000
config **.loRaGateway.packetForwarder.destAddresses "\"HospitalServer\""
config **.loRaGateway.**.initFromDisplayString false
config **.loRaGateway.**.initialX 544.00m
config **.loRaGateway.**.initialY 544.00m
config **.loRaNodes[*].numApps 1
config **.loRaNodes[*].app[0].typename PatientSensorApp
config **.loRaNodes[*].app[0].expo_rate_lambda 0.00175
config **.loRaNodes[*].app[0].emergencyThreshold 50
config **.loRaNodes[*].**.timeToFirstPacket exponential(24s)
config **.loRaNodes[*].**.timeToNextPacket exponential(24s)
config **.loRaNodes[*].**.numberOfPacketsToSend 0
config **.loRaNodes[*].**initialLoRaSF 12
config **.loRaNodes[*].**initialLoRaTP 14dBm
config **.loRaNodes[*].**initialLoRaBW "125 kHz"
config **.loRaNodes[*].**initialLoRaCR 4
config **.loRaNodes[*].**.initFromDisplayString false
config **.loRaNodes[*].**.evaluateADRinNode true
config **.loRaNodes[*].LoRaNic.radio.energyConsumer.typename LoRaEnergyConsumer
config **.loRaNodes[*].**.energySourceModule "\"^.IdealEpEnergyStorage\""
config **.loRaNodes[*].LoRaNic.radio.energyConsumer.configFile "xmldoc(\"energyConsumptionParam.xml\")"
config **.maxTransmissionDuration 4s
config **.energyDetection -110dBm
config **.radio.radioMediumModule "\"LoRaMedium\""
config **.minInterferenceTime 0s
config **.constraintAreaMinX 0m
config **.constraintAreaMinY 0m
config **.constraintAreaMinZ 0m
config **.constraintAreaMaxZ 0m
config **.constraintAreaMaxX 3000.0m
config **.constraintAreaMaxY 3000.0m

vector 0 LoRaNetworkTest.loRaNodes[6].app[0] emergencyVariate:vector ETV
attr recordingmode vector
attr title "Exponential variate samples"
vector 1 LoRaNetworkTest.loRaNodes[38].app[0] emergencyVariate:vector ETV
attr recordingmode vector
attr title "Exponential variate samples"
vector 2 LoRaNetworkTest.loRaNodes[3].app[0] emergencyVariate:vector ETV
attr recordingmode vector
attr title "Exponential variate samples"
vector 3 LoRaNetworkTest.loRaNodes[27].app[0] emergencyVariate:vector ETV
attr recordingmode vector
attr title "Exponential variate samples"
vector 4 LoRaNetworkTest.HospitalServer.app[0] queueLength:vector ETV
attr recordingmode vector
attr title "Total queue length"
vector 5 LoRaNetworkTest.HospitalServer.app[0] normalWaitTime:vector ETV
attr recordingmode vector
attr title "Normal wait time (s)"
vector 6 LoRaNetworkTest.HospitalServer.app[0] normalEndToEndDelay:vector ETV
attr recordingmode vector
attr title "Normal end-to-end delay (s)"
vector 7 LoRaNetworkTest.loRaNodes[19].app[0] emergencyVariate:vector ETV
attr recordingmode vector
attr title "Exponential variate samples"
vector 8 LoRaNetworkTest.loRaNodes[30].app[0] emergencyVariate:vector ETV
attr recordingmode vector
attr title "Exponential variate samples"
vector 9 LoRaNetworkTest.loRaNodes[14].app[0] emergencyVariate:vector ETV
attr recordingmode vector
attr title "Exponential variate samples"
vector 10 LoRaNetworkTest.loRaNodes[29].app[0] emergencyVariate:vector ETV
attr recordingmode vector
attr title "Exponential variate samples"
vector 11 LoRaNetworkTest.loRaNodes[12].app[0] emergencyVariate:vector ETV
attr recordingmode vector
attr title "Exponential variate samples"
vector 12 LoRaNetworkTest.loRaNodes[31].app[0] emergencyVariate:vector ETV
attr recordingmode vector
attr title "Exponential variate samples"
vector 13 LoRaNetworkTest.loRaNodes[24].app[0] emergencyVariate:vector ETV
attr recordingmode vector
attr title "Exponential variate samples"
vector 14 LoRaNetworkTest.loRaNodes[0].app[0] emergencyVariate:vector ETV
attr recordingmode vector
attr title "Exponential variate samples"
vector 15 LoRaNetworkTest.loRaNodes[28].app[0] emergencyVariate:vector ETV
attr recordingmode vector
attr title "Exponential variate samples"
vector 16 LoRaNetworkTest.loRaNodes[17].app[0] emergencyVariate:vector ETV
attr recordingmode vector
attr title "Exponential variate samples"
vector 17 LoRaNetworkTest.loRaNodes[34].app[0] emergencyVariate:vector ETV
attr recordingmode vector
attr title "Exponential variate samples"
vector 18 LoRaNetworkTest.loRaNodes[49].app[0] emergencyVariate:vector ETV
attr recordingmode vector
attr title "Exponential variate samples"
vector 19 LoRaNetworkTest.loRaNodes[11].app[0] emergencyVariate:vector ETV
attr recordingmode vector
attr title "Exponential variate samples"
vector 20 LoRaNetworkTest.loRaNodes[7].app[0] emergencyVariate:vector ETV
attr recordingmode vector
attr title "Exponential variate samples"
vector 21 LoRaNetworkTest.loRaNodes[46].app[0] emergencyVariate:vector ETV
attr recordingmode vector
attr title "Exponential variate samples"
vector 22 LoRaNetworkTest.loRaNodes[42].app[0] emergencyVariate:vector ETV
attr recordingmode vector
attr title "Exponential variate samples"
vector 23 LoRaNetworkTest.loRaNodes[26].app[0] emergencyVariate:vector ETV
attr recordingmode vector
attr title "Exponential variate samples"
vector 24 LoRaNetworkTest.loRaNodes[37].app[0] emergencyVariate:vector ETV
attr recordingmode vector
attr title "Exponential variate samples"
vector 25 LoRaNetworkTest.loRaNodes[41].app[0] emergencyVariate:vector ETV
attr recordingmode vector
attr title "Exponential variate samples"
vector 26 LoRaNetworkTest.loRaNodes[20].app[0] emergencyVariate:vector ETV
attr recordingmode vector
attr title "Exponential variate samples"
vector 27 LoRaNetworkTest.loRaNodes[36].app[0] emergencyVariate:vector ETV
attr recordingmode vector
attr title "Exponential variate samples"
vector 28 LoRaNetworkTest.loRaNodes[16].app[0] emergencyVariate:vector ETV
attr recordingmode vector
attr title "Exponential variate samples"
vector 29 LoRaNetworkTest.loRaNodes[15].app[0] emergencyVariate:vector ETV
attr recordingmode vector
attr title "Exponential variate samples"
vector 30 LoRaNetworkTest.loRaNodes[45].app[0] emergencyVariate:vector ETV
attr recordingmode vector
attr title "Exponential variate samples"
vector 31 LoRaNetworkTest.loRaNodes[13].app[0] emergencyVariate:vector ETV
attr recordingmode vector
attr title "Exponential variate samples"
vector 32 LoRaNetworkTest.loRaNodes[47].app[0] emergencyVariate:vector ETV
attr recordingmode vector
attr title "Exponential variate samples"
vector 33 LoRaNetworkTest.loRaNodes[4].app[0] emergencyVariate:vector ETV
attr recordingmode vector
attr title "Exponential variate samples"
vector 34 LoRaNetworkTest.loRaNodes[25].app[0] emergencyVariate:vector ETV
attr recordingmode vector
attr title "Exponential variate samples"
vector 35 LoRaNetworkTest.loRaNodes[1].app[0] emergencyVariate:vector ETV
attr recordingmode vector
attr title "Exponential variate samples"
vector 36 LoRaNetworkTest.loRaNodes[35].app[0] emergencyVariate:vector ETV
attr recordingmode vector
attr title "Exponential variate samples"
vector 37 LoRaNetworkTest.loRaNodes[23].app[0] emergencyVariate:vector ETV
attr recordingmode vector
attr title "Exponential variate samples"
vector 38 LoRaNetworkTest.loRaNodes[10].app[0] emergencyVariate:vector ETV
attr recordingmode vector
attr title "Exponential variate samples"
vector 39 LoRaNetworkTest.loRaNodes[22].app[0] emergencyVariate:vector ETV
attr recordingmode vector
attr title "Exponential variate samples"
vector 40 LoRaNetworkTest.loRaNodes[32].app[0] emergencyVariate:vector ETV
attr recordingmode vector
attr title "Exponential variate samples"
vector 41 LoRaNetworkTest.loRaNodes[2].app[0] emergencyVariate:vector ETV
attr recordingmode vector
attr title "Exponential variate samples"
vector 42 LoRaNetworkTest.loRaNodes[39].app[0] emergencyVariate:vector ETV
attr recordingmode vector
attr title "Exponential variate samples"
vector 43 LoRaNetworkTest.loRaNodes[44].app[0] emergencyVariate:vector ETV
attr recordingmode vector
attr title "Exponential variate samples"
vector 44 LoRaNetworkTest.loRaNodes[9].app[0] emergencyVariate:vector ETV
attr recordingmode vector
attr title "Exponential variate samples"
vector 45 LoRaNetworkTest.loRaNodes[43].app[0] emergencyVariate:vector ETV
attr recordingmode vector
attr title "Exponential variate samples"
vector 46 LoRaNetworkTest.loRaNodes[8].app[0] emergencyVariate:vector ETV
attr recordingmode vector
attr title "Exponential variate samples"
vector 47 LoRaNetworkTest.loRaNodes[21].app[0] emergencyVariate:vector ETV
attr recordingmode vector
attr title "Exponential variate samples"
vector 48 LoRaNetworkTest.loRaNodes[5].app[0] emergencyVariate:vector ETV
attr recordingmode vector
attr title "Exponential variate samples"
vector 49 LoRaNetworkTest.loRaNodes[40].app[0] emergencyVariate:vector ETV
attr recordingmode vector
attr title "Exponential variate samples"
vector 50 LoRaNetworkTest.loRaNodes[48].app[0] emergencyVariate:vector ETV
attr recordingmode vector
attr title "Exponential variate samples"
vector 51 LoRaNetworkTest.loRaNodes[33].app[0] emergencyVariate:vector ETV
attr recordingmode vector
attr title "Exponential variate samples"
vector 52 LoRaNetworkTest.loRaNodes[18].app[0] emergencyVariate:vector ETV
attr recordingmode vector
attr title "Exponential variate samples"
vector 53 LoRaNetworkTest.HospitalServer.app[0] urgentWaitTime:vector ETV
attr recordingmode vector
attr title "Urgent wait time (s)"
vector 54 LoRaNetworkTest.HospitalServer.app[0] urgentEndToEndDelay:vector ETV
attr recordingmode vector
attr title "Urgent end-to-end delay (s)"
0	4966	76.62222481574	355.37603212324
0	11468	278.79416770913	696.48398803251
0	16616	469.40851015878	865.7806692934
0	22373	651.82380702669	0.82545421730705
0	28489	858.4086417577	61.974150585037
0	34213	1062.39831747991	1455.3923044438
0	41655	1313.34797485957	99.004770385935
0	47364	1487.13554859224	21.976197761284
0	53466	1674.6208842222	2376.6260551415
0	60190	1887.21182208442	82.059337267426
0	66677	2094.48219256818	146.86712333972
0	71882	2265.80235301528	382.09696099109
0	77989	2463.3813753857	197.63428598395
0	83789	2645.57721485056	204.08460933158
0	89781	2840.49019593714	563.5250666315
0	95066	3015.88798513334	1408.4433091856
0	100586	3196.58948435833	231.8967241951
0	106826	3404.17589815359	85.651432111638
1	5070	79.18779611297	126.52346278643
1	10384	260.29462499844	474.8272907004
1	15910	453.52873211608	229.79180326359
1	21881	638.88564773221	181.12199045422
1	26855	814.28490486117	353.73521785166
1	34953	1081.41086732124	542.30222211436
1	40878	1267.94292581193	112.7703207146
1	47015	1454.40985561332	146.17977601784
1	52817	1640.99187701446	765.12969430498
1	58367	1812.84773802828	2226.7695365783
1	64119	1998.18272569509	881.32242040846
1	70318	2205.88918569698	731.06789094779
1	76189	2396.21061270602	1818.0420269641
1	82172	2594.31072615915	1027.7360722064
1	87734	2767.79493104708	7.85714067378
1	94542	2988.78102736282	109.4126508902
1	100271	3186.96481418439	161.34970357304
1	107044	3423.94429293272	585.03573946037
2	5124	79.85571849453	605.70060587373
2	10615	262.99682376721	1397.9391389828
2	17449	501.83040542931	196.26344002262
2	23202	677.65664121906	159.51550107461
2	29258	881.89280349878	1065.886600475
2	34773	1078.2089981502	186.63659664689
2	40481	1260.6092498269	257.78998083498
2	46476	1436.58303614879	62.698908300909
2	51660	1609.00910188594	730.61275526173
2	58609	1815.69689693042	748.25321354315
2	63831	1992.19771304589	904.868436967
2	69595	2180.00361129995	275.46475921702
2	75073	2363.63552499009	1156.3741042203
2	80016	2535.03214544682	165.31403525041
2	86275	2730.08173363567	1189.5547385635
2	92850	2919.91193794698	594.40350993989
2	97487	3094.14298295737	1091.9677036781
2	103738	3293.59697980373	238.69028262009
2	109389	3486.32231708226	217.63696110799
3	5230	81.48185639844	160.23760185562
3	10509	261.82014422234	61.391580852882
3	15489	444.35727754782	1186.838761937
3	20820	619.28191403404	372.98820218141
3	27093	816.94133341186	136.52680752381
3	32279	993.9744765521	87.470518460416
3	40268	1243.70381926546	359.16569647172
3	46056	1420.03687731868	334.19889505091
3	51352	1603.11586534125	1062.2688465316
3	58049	1808.32039492315	829.55267781663
3	63482	1984.86356623755	655.67087576159
3	69787	2188.19890311846	657.26684253384
3	75200	2365.38215444763	1005.9389780487
3	81710	2571.33880963443	67.141975123024
3	87680	2766.57958698732	137.02905593093
3	94245	2983.4414736769	117.29223561581
3	101941	3248.07104782794	1375.0172716221
3	107153	3429.92492094647	1319.5237387267
4	5344	81.56784909998	1
4	5344	81.56784909998	0
4	5630	94.11853159291	1
4	5630	94.11853159291	0
4	5786	98.42990052166	1
4	5786	98.42990052166	0
4	6156	181.62984128346	1
4	6156	181.62984128346	0
4	6291	186.18185295832	1
4	6291	186.18185295832	0
4	6400	188.11249578226	1
4	6400	188.11249578226	0
4	7010	197.9804356614	1
4	7010	197.9804356614	0
4	7227	201.26129393529	1
4	7227	201.26129393529	0
4	7450	203.44970151072	1
4	7450	203.44970151072	0
4	7736	206.3567233942	1
4	7736	206.3567233942	0
4	8008	209.71215543559	1
4	8008	209.71215543559	0
4	8397	214.35801264568	1
4	8397	214.35801264568	0
4	9158	219.98532216642	1
4	9158	219.98532216642	0
4	9302	221.96684522629	1
4	9302	221.96684522629	0
4	9449	226.27341487723	1
4	9449	226.27341487723	0
4	9638	230.31238186433	1
4	9638	230.31238186433	0
4	9833	233.75455009683	1
4	9833	233.75455009683	0
4	10069	244.74034102417	1
4	10069	244.74034102417	0
4	10294	249.77937510576	1
4	10294	249.77937510576	0
4	10506	261.70283014189	1
4	10506	261.70283014189	0
4	10838	264.70895437266	1
4	10838	264.70895437266	0
4	11017	269.38845573279	1
4	11017	269.38845573279	0
4	11255	275.45099042823	1
4	11255	275.45099042823	0
4	11452	278.03233960749	1
4	11452	278.03233960749	0
4	11593	279.72697054911	1
4	11593	279.72697054911	0
4	11922	354.76586921554	1
4	11922	354.76586921554	0
4	12025	358.49776961433	1
4	12025	358.49776961433	0
4	12485	382.48044168382	1
4	12485	382.48044168382	0
4	13008	389.14256365318	1
4	13008	389.14256365318	0
4	13187	391.87926798368	1
4	13187	391.87926798368	0
4	13541	407.58195259359	1
4	13541	407.58195259359	0
4	13892	413.70728898213	1
4	13892	413.70728898213	0
4	14037	419.25083727725	1
4	14037	419.25083727725	0
4	14376	422.25540550434	1
4	14376	422.25540550434	0
4	14605	425.24595326955	1
4	14605	425.24595326955	0
4	15289	435.04182561691	1
4	15289	435.04182561691	0
4	15587	445.32740192673	1
4	15587	445.32740192673	0
4	15786	450.50442425945	1
4	15786	450.50442425945	0
4	16006	453.85392722314	1
4	16034	454.10392605779	0
4	16586	464.33222965683	1
4	16586	464.33222965683	0
4	17094	483.0773374357	1
4	17094	483.0773374357	0
4	17443	499.09820367277	1
4	17443	499.09820367277	0
4	17566	503.54253603476	1
4	17566	503.54253603476	0
4	17679	530.14159928026	1
4	17679	530.14159928026	0
4	17925	548.99127774781	1
4	17925	548.99127774781	0
4	18178	559.17323468745	1
4	18178	559.17323468745	0
4	18516	567.27605636811	1
4	18516	567.27605636811	0
4	18662	569.43186926708	1
4	18667	570.97218490141	0
4	18775	575.54408693992	1
4	18775	575.54408693992	0
4	19335	593.20168460175	1
4	19335	593.20168460175	0
4	19630	595.05886089803	1
4	19630	595.05886089803	0
4	19919	597.99218586064	1
4	19919	597.99218586064	0
4	20128	602.08453328803	1
4	20128	602.08453328803	0
4	20354	606.69885654557	1
4	20354	606.69885654557	0
4	20641	609.8810321261	1
4	20641	609.8810321261	0
4	21025	621.59083190369	1
4	21025	621.59083190369	0
4	21219	623.54118740984	1
4	21219	623.54118740984	0
4	21562	635.21774598665	1
4	21562	635.21774598665	0
4	21803	637.36090800531	1
4	21803	637.36090800531	0
4	22117	641.3943238467	1
4	22117	641.3943238467	0
4	22337	648.76184976148	1
4	22337	648.76184976148	0
4	22806	661.07616429819	1
4	22806	661.07616429819	0
4	22958	670.78325563484	1
4	22958	670.78325563484	0
4	23170	675.83395653729	1
4	23170	675.83395653729	0
4	23427	679.36877182451	1
4	23427	679.36877182451	0
4	23709	732.8091869659	1
4	23709	732.8091869659	0
4	23873	737.09419373306	1
4	23873	737.09419373306	0
4	24127	739.8879332926	1
4	24127	739.8879332926	0
4	24299	746.86986290494	1
4	24299	746.86986290494	0
4	24866	767.66410598623	1
4	24866	767.66410598623	0
4	25331	772.57909516245	1
4	25331	772.57909516245	0
4	25666	776.51776631159	1
4	25666	776.51776631159	0
4	26037	784.59635310814	1
4	26037	784.59635310814	0
4	26260	795.09766718508	1
4	26260	795.09766718508	0
4	26659	810.7337489462	1
4	26659	810.7337489462	0
4	26972	815.27361188613	1
4	26972	815.27361188613	0
4	27316	819.21796645752	1
4	27316	819.21796645752	0
4	27444	834.62509597431	1
4	27444	834.62509597431	0
4	27680	840.74135792409	1
4	27711	842.3609853647	0
4	28302	855.69877924178	1
4	28302	855.69877924178	0
4	28487	858.25166186038	1
4	28487	858.25166186038	0
4	28871	865.11024285496	1
4	28871	865.11024285496	0
4	29055	868.12935396448	1
4	29055	868.12935396448	0
4	29372	883.60493410423	1
4	29372	883.60493410423	0
4	29507	894.38323249105	1
4	29507	894.38323249105	0
4	29616	906.97408729365	1
4	29616	906.97408729365	0
4	29753	916.07218195809	1
4	29753	916.07218195809	0
4	30259	949.32531674911	1
4	30259	949.32531674911	0
4	30443	951.46749712976	1
4	30443	951.46749712976	0
4	30949	957.23246189995	1
4	30949	957.23246189995	0
4	31039	958.90752173505	1
4	31057	959.70223332223	0
4	31191	962.78905665174	1
4	31191	962.78905665174	0
4	31431	968.21260580028	1
4	31431	968.21260580028	0
4	31813	982.28867980902	1
4	31813	982.28867980902	0
4	32206	989.04413679087	1
4	32206	989.04413679087	0
4	32716	1009.67087563982	1
4	32716	1009.67087563982	0
4	32942	1017.73103424735	1
4	32942	1017.73103424735	0
4	33132	1021.79113698274	1
4	33132	1021.79113698274	0
4	33317	1026.72002877254	1
4	33317	1026.72002877254	0
4	33882	1048.95670982372	1
4	33882	1048.95670982372	0
4	34129	1052.91495507394	1
4	34129	1052.91495507394	0
4	34314	1062.82104331188	1
4	34314	1062.82104331188	0
4	34506	1065.9899602705	1
4	34506	1065.9899602705	0
4	34734	1071.49337131035	1
4	34734	1071.49337131035	0
4	34887	1079.92112875565	1
4	34887	1079.92112875565	0
4	35157	1082.80151178269	1
4	35157	1082.80151178269	0
4	35461	1093.55465191627	1
4	35461	1093.55465191627	0
4	35595	1096.74790626189	1
4	35595	1096.74790626189	0
4	35989	1128.01696453401	1
4	35989	1128.01696453401	0
4	36265	1137.04639943693	1
4	36265	1137.04639943693	0
4	36683	1141.63812994156	1
4	36683	1141.63812994156	0
4	36820	1145.02877819577	1
4	36820	1145.02877819577	0
4	37058	1148.48885408172	1
4	37058	1148.48885408172	0
4	37450	1158.27439262135	1
4	37450	1158.27439262135	0
4	37741	1175.20981532128	1
4	37741	1175.20981532128	0
4	37894	1177.63184541586	1
4	37894	1177.63184541586	0
4	38006	1193.53059114274	1
4	38006	1193.53059114274	0
4	38134	1201.02139029576	1
4	38134	1201.02139029576	0
4	38265	1203.03748803556	1
4	38265	1203.03748803556	0
4	38605	1207.01653236342	1
4	38605	1207.01653236342	0
4	38966	1211.6026372012	1
4	38966	1211.6026372012	0
4	39482	1227.91937824832	1
4	39482	1227.91937824832	0
4	39654	1230.77296805492	1
4	39654	1230.77296805492	0
4	40064	1236.5802140748	1
4	40064	1236.5802140748	0
4	40633	1262.32138293635	1
4	40633	1262.32138293635	0
4	40738	1264.04460053926	1
4	40738	1264.04460053926	0
4	41207	1288.1738989835	1
4	41207	1288.1738989835	0
4	41358	1299.06925120064	1
4	41358	1299.06925120064	0
4	41463	1305.30367516346	1
4	41463	1305.30367516346	0
4	41754	1314.31475117555	1
4	41754	1314.31475117555	0
4	41966	1320.30019527135	1
4	41970	1321.20453415028	0
4	42085	1323.23863012344	1
4	42100	1324.10212722041	0
4	42285	1328.04759991722	1
4	42285	1328.04759991722	0
4	42452	1329.88573373284	1
4	42452	1329.88573373284	0
4	42824	1340.71205587941	1
4	42824	1340.71205587941	0
4	43037	1345.55575135556	1
4	43037	1345.55575135556	0
4	43169	1348.36010274354	1
4	43199	1349.90519703715	0
4	43537	1354.88526858987	1
4	43537	1354.88526858987	0
4	43673	1357.73727219208	1
4	43673	1357.73727219208	0
4	43807	1360.75094526152	1
4	43807	1360.75094526152	0
4	43910	1362.69350868426	1
4	43937	1362.71776068642	0
4	44046	1372.59382870707	1
4	44046	1372.59382870707	0
4	44180	1377.12990992888	1
4	44180	1377.12990992888	0
4	44364	1381.4236614305	1
4	44364	1381.4236614305	0
4	44702	1384.8712618958	1
4	44702	1384.8712618958	0
4	44932	1397.51275020134	1
4	44932	1397.51275020134	0
4	45067	1400.05916524588	1
4	45067	1400.05916524588	0
4	45184	1402.19869853945	1
4	45184	1402.19869853945	0
4	45448	1406.40969945042	1
4	45448	1406.40969945042	0
4	45583	1410.24430533897	1
4	45583	1410.24430533897	0
4	45862	1418.11589854068	1
4	45862	1418.11589854068	0
4	46053	1419.91431763405	1
4	46053	1419.91431763405	0
4	46390	1432.72753953602	1
4	46390	1432.72753953602	0
4	46794	1445.11936149191	1
4	46794	1445.11936149191	0
4	47000	1447.73256120619	1
4	47000	1447.73256120619	0
4	47226	1462.69046128189	1
4	47226	1462.69046128189	0
4	47571	1494.01320600317	1
4	47571	1494.01320600317	0
4	47721	1496.55517902329	1
4	47721	1496.55517902329	0
4	48104	1519.41576931815	1
4	48104	1519.41576931815	0
4	48221	1523.16662612886	1
4	48221	1523.16662612886	0
4	48511	1526.41164706991	1
4	48511	1526.41164706991	0
4	48686	1528.63075399979	1
4	48710	1528.67874655066	0
4	48956	1542.34114120449	1
4	48956	1542.34114120449	0
4	49114	1544.46337759309	1
4	49114	1544.46337759309	0
4	49418	1552.87537021155	1
4	49418	1552.87537021155	0
4	49596	1556.06449991645	1
4	49596	1556.06449991645	0
4	49842	1561.69095196069	1
4	49842	1561.69095196069	0
4	50127	1565.81251865072	1
4	50127	1565.81251865072	0
4	50292	1571.16531437549	1
4	50292	1571.16531437549	0
4	50611	1583.05277345008	1
4	50611	1583.05277345008	0
4	50805	1586.62687995063	1
4	50805	1586.62687995063	0
4	51313	1594.6803458172	1
4	51313	1594.6803458172	0
4	51474	1604.82799743899	1
4	51474	1604.82799743899	0
4	51635	1608.65198180878	1
4	51635	1608.65198180878	0
4	52153	1616.99937352987	1
4	52153	1616.99937352987	0
4	52329	1620.10223482421	1
4	52416	1623.61890049217	0
4	52545	1626.35883528798	1
4	52545	1626.35883528798	0
4	52666	1631.31460481344	1
4	52666	1631.31460481344	0
4	52785	1633.94607294493	1
4	52785	1633.94607294493	0
4	53292	1652.09967398022	1
4	53292	1652.09967398022	0
4	53586	1675.04497382427	1
4	53586	1675.04497382427	0
4	53773	1680.16324279407	1
4	53773	1680.16324279407	0
4	53880	1683.84852394113	1
4	53880	1683.84852394113	0
4	54090	1698.44540607552	1
4	54090	1698.44540607552	0
4	54309	1700.4218370355	1
4	54434	1701.86527662625	0
4	54602	1705.98980756592	1
4	54602	1705.98980756592	0
4	54733	1722.26939727401	1
4	54733	1722.26939727401	0
4	55314	1745.42736534569	1
4	55314	1745.42736534569	0
4	55641	1753.11888101688	1
4	55641	1753.11888101688	0
4	55801	1755.16872088975	1
4	55801	1755.16872088975	0
4	56024	1762.39483137063	1
4	56024	1762.39483137063	0
4	56470	1767.17528460986	1
4	56470	1767.17528460986	0
4	57035	1777.9304634694	1
4	57035	1777.9304634694	0
4	57218	1782.59832951384	1
4	57218	1782.59832951384	0
4	57662	1800.80392130197	1
4	57662	1800.80392130197	0
4	57862	1803.58668313063	1
4	57862	1803.58668313063	0
4	58585	1815.51666667596	1
4	58585	1815.51666667596	0
4	58729	1817.40902753587	1
4	58729	1817.40902753587	0
4	58963	1840.47441751034	1
4	58963	1840.47441751034	0
4	59166	1853.42962643028	1
4	59166	1853.42962643028	0
4	59348	1855.88060970746	1
4	59348	1855.88060970746	0
4	59462	1867.93972705847	1
4	59462	1867.93972705847	0
4	59820	1874.10420616496	1
4	59820	1874.10420616496	0
4	60181	1885.06685001032	1
4	60181	1885.06685001032	0
4	60453	1901.65870681382	1
4	60453	1901.65870681382	0
4	60666	1907.91763740128	1
4	60666	1907.91763740128	0
4	60909	1914.56332493232	1
4	60909	1914.56332493232	0
4	61152	1922.75225724148	1
4	61152	1922.75225724148	0
4	61384	1930.35241678447	1
4	61384	1930.35241678447	0
4	61535	1935.01298141784	1
4	61535	1935.01298141784	0
4	61656	1941.5525913694	1
4	61656	1941.5525913694	0
4	61789	1944.88939671275	1
4	61789	1944.88939671275	0
4	62041	1947.50603896466	1
4	62041	1947.50603896466	0
4	62589	1958.5161577044	1
4	62589	1958.5161577044	0
4	63001	1967.30366450557	1
4	63001	1967.30366450557	0
4	63186	1969.07178143726	1
4	63213	1971.51117999991	0
4	63331	1975.7954746781	1
4	63331	1975.7954746781	0
4	63457	1977.77632866558	1
4	63457	1977.77632866558	0
4	63741	1986.74087845998	1
4	63741	1986.74087845998	0
4	63945	1993.90984365134	1
4	63945	1993.90984365134	0
4	64217	1999.55061374809	1
4	64217	1999.55061374809	0
4	64622	2015.56547164753	1
4	64622	2015.56547164753	0
4	64915	2027.25314975353	1
4	64915	2027.25314975353	0
4	65264	2042.33541280971	1
4	65264	2042.33541280971	0
4	65540	2050.55105776694	1
4	65540	2050.55105776694	0
4	65964	2059.31481757396	1
4	65964	2059.31481757396	0
4	66203	2078.03868744162	1
4	66203	2078.03868744162	0
4	66582	2087.2517388112	1
4	66582	2087.2517388112	0
4	67094	2107.35870943835	1
4	67094	2107.35870943835	0
4	67345	2119.15256379018	1
4	67345	2119.15256379018	0
4	67547	2121.37864816073	1
4	67547	2121.37864816073	0
4	68032	2136.56635940925	1
4	68032	2136.56635940925	0
4	68280	2141.19562138399	1
4	68280	2141.19562138399	0
4	68471	2144.26260820273	1
4	68471	2144.26260820273	0
4	68761	2151.00642257528	1
4	68761	2151.00642257528	0
4	68929	2153.35855257135	1
4	68929	2153.35855257135	0
4	69270	2164.38816277556	1
4	69270	2164.38816277556	0
4	69526	2178.01525888059	1
4	69526	2178.01525888059	0
4	69764	2181.7157419054	1
4	69764	2181.7157419054	0
4	70099	2191.62850595581	1
4	70099	2191.62850595581	0
4	70232	2202.01398200865	1
4	70232	2202.01398200865	0
4	70918	2226.23316884869	1
4	70918	2226.23316884869	0
4	71042	2231.37841812238	1
4	71042	2231.37841812238	0
4	71334	2248.54278269537	1
4	71334	2248.54278269537	0
4	71739	2256.11842460916	1
4	71739	2256.11842460916	0
4	72299	2270.19217902376	1
4	72299	2270.19217902376	0
4	72490	2278.04642856142	1
4	72490	2278.04642856142	0
4	72617	2279.80557170671	1
4	72617	2279.80557170671	0
4	73425	2314.28619127897	1
4	73425	2314.28619127897	0
4	73615	2317.15698106398	1
4	73615	2317.15698106398	0
4	73767	2325.44912386972	1
4	73767	2325.44912386972	0
4	73992	2328.11611526514	1
4	73992	2328.11611526514	0
4	74339	2336.16717211093	1
4	74339	2336.16717211093	0
4	74810	2350.95414176026	1
4	74810	2350.95414176026	0
4	74936	2353.37985230426	1
4	74936	2353.37985230426	0
4	75189	2365.34765559554	1
4	75189	2365.34765559554	0
4	75521	2376.04533266682	1
4	75521	2376.04533266682	0
4	75667	2380.58724546496	1
4	75667	2380.58724546496	0
4	75787	2383.47316340031	1
4	75787	2383.47316340031	0
4	75994	2387.63196523009	1
4	75994	2387.63196523009	0
4	76180	2392.93087301903	1
4	76180	2392.93087301903	0
4	76557	2416.57650928835	1
4	76557	2416.57650928835	0
4	76784	2421.85756478177	1
4	76784	2421.85756478177	0
4	76980	2424.63920267053	1
4	76980	2424.63920267053	0
4	77143	2427.69662673444	1
4	77143	2427.69662673444	0
4	77283	2431.81563451507	1
4	77283	2431.81563451507	0
4	77959	2457.86888166988	1
4	77959	2457.86888166988	0
4	78402	2467.46726027014	1
4	78402	2467.46726027014	0
4	78569	2471.65942395887	1
4	78569	2471.65942395887	0
4	78675	2476.77643227709	1
4	78675	2476.77643227709	0
4	79028	2491.77362757881	1
4	79028	2491.77362757881	0
4	79156	2497.07703885644	1
4	79156	2497.07703885644	0
4	79633	2513.57746907033	1
4	79633	2513.57746907033	0
4	79747	2517.41756737335	1
4	79747	2517.41756737335	0
4	79890	2524.9657853629	1
4	79890	2524.9657853629	0
4	80277	2538.59001345862	1
4	80277	2538.59001345862	0
4	80505	2543.00874041224	1
4	80505	2543.00874041224	0
4	80738	2551.22307779306	1
4	80738	2551.22307779306	0
4	80866	2554.63551103957	1
4	80866	2554.63551103957	0
4	81214	2556.82187337043	1
4	81214	2556.82187337043	0
4	81572	2564.15343186951	1
4	81572	2564.15343186951	0
4	81914	2573.97678759666	1
4	81914	2573.97678759666	0
4	82373	2597.84741013344	1
4	82373	2597.84741013344	0
4	82563	2601.92928453513	1
4	82563	2601.92928453513	0
4	82971	2618.97312641702	1
4	82971	2618.97312641702	0
4	83333	2626.73954723489	1
4	83333	2626.73954723489	0
4	84128	2657.2595293208	1
4	84128	2657.2595293208	0
4	84399	2669.3503462117	1
4	84399	2669.3503462117	0
4	84559	2674.45181993691	1
4	84559	2674.45181993691	0
4	84848	2678.32018756849	1
4	84848	2678.32018756849	0
4	85261	2699.96296728873	1
4	85261	2699.96296728873	0
4	85680	2712.70547986923	1
4	85680	2712.70547986923	0
4	85870	2718.72428488885	1
4	85870	2718.72428488885	0
4	86036	2726.79883101993	1
4	86036	2726.79883101993	0
4	86922	2738.89857232902	1
4	86922	2738.89857232902	0
4	87070	2743.0548703709	1
4	87070	2743.0548703709	0
4	87198	2748.98580803625	1
4	87198	2748.98580803625	0
4	87323	2753.30921522574	1
4	87323	2753.30921522574	0
4	87910	2769.50706365345	1
4	87910	2769.50706365345	0
4	88047	2775.66138732448	1
4	88047	2775.66138732448	0
4	88309	2786.47470848643	1
4	88309	2786.47470848643	0
4	88665	2796.12499131235	1
4	88665	2796.12499131235	0
4	88881	2807.86925963027	1
4	88881	2807.86925963027	0
4	89022	2810.60481237192	1
4	89022	2810.60481237192	0
4	89146	2813.6057541769	1
4	89146	2813.6057541769	0
4	89298	2815.87776938772	1
4	89298	2815.87776938772	0
4	89432	2833.90342385648	1
4	89432	2833.90342385648	0
4	89771	2838.93706204365	1
4	89771	2838.93706204365	0
4	90022	2847.61792691101	1
4	90022	2847.61792691101	0
4	90236	2857.08436063711	1
4	90236	2857.08436063711	0
4	90423	2864.94557239745	1
4	90423	2864.94557239745	0
4	90932	2884.52311640863	1
4	90932	2884.52311640863	0
4	91399	2893.67816900552	1
4	91399	2893.67816900552	0
4	91532	2902.88322312246	1
4	91532	2902.88322312246	0
4	91939	2909.47859815962	1
4	91939	2909.47859815962	0
4	92138	2913.01361063049	1
4	92138	2913.01361063049	0
4	92773	2916.50556481736	1
4	92773	2916.50556481736	0
4	93070	2928.30767496353	1
4	93070	2928.30767496353	0
4	93410	2946.69349902038	1
4	93410	2946.69349902038	0
4	93945	2967.99444399434	1
4	93945	2967.99444399434	0
4	94230	2982.76697876632	1
4	94230	2982.76697876632	0
4	94460	2987.56387359035	1
4	94460	2987.56387359035	0
4	94646	2990.07899134534	1
4	94729	2992.77709468219	0
4	95434	3026.82517101266	1
4	95434	3026.82517101266	0
4	95728	3043.11638431964	1
4	95728	3043.11638431964	0
4	95882	3045.71880239742	1
4	95882	3045.71880239742	0
4	96339	3058.15235590861	1
4	96339	3058.15235590861	0
4	96600	3071.72880851368	1
4	96600	3071.72880851368	0
4	96878	3082.49128401767	1
4	96878	3082.49128401767	0
4	97334	3086.13806423154	1
4	97334	3086.13806423154	0
4	97597	3094.81833778102	1
4	97597	3094.81833778102	0
4	97797	3101.45427236847	1
4	97797	3101.45427236847	0
4	98067	3104.47728939634	1
4	98067	3104.47728939634	0
4	98246	3106.32360376703	1
4	98246	3106.32360376703	0
4	98495	3122.89338574258	1
4	98495	3122.89338574258	0
4	98622	3130.99853139331	1
4	98622	3130.99853139331	0
4	98752	3133.73664921117	1
4	98752	3133.73664921117	0
4	99566	3156.69290023668	1
4	99566	3156.69290023668	0
4	99727	3164.61871120602	1
4	99727	3164.61871120602	0
4	99954	3172.94046820422	1
4	99954	3172.94046820422	0
4	100180	3182.11765318756	1
4	100180	3182.11765318756	0
4	100393	3188.2910470223	1
4	100393	3188.2910470223	0
4	100559	3193.60619986828	1
4	100559	3193.60619986828	0
4	100815	3199.20781197876	1
4	100815	3199.20781197876	0
4	100920	3201.48666030294	1
4	100920	3201.48666030294	0
4	101108	3203.44737286972	1
4	101298	3206.50039050048	2
4	101328	3208.31401353369	1
4	101333	3212.80966054668	0
4	101455	3221.09871820588	1
4	101455	3221.09871820588	0
4	101563	3226.05600410196	1
4	101563	3226.05600410196	0
4	101817	3244.17467539277	1
4	101817	3244.17467539277	0
4	102341	3257.61327787955	1
4	102341	3257.61327787955	0
4	102495	3259.39661007707	1
4	102495	3259.39661007707	0
4	102709	3262.35533891497	1
4	102709	3262.35533891497	0
4	103050	3277.90897563115	1
4	103050	3277.90897563115	0
4	103382	3281.18292429916	1
4	103382	3281.18292429916	0
4	103736	3293.36507551288	1
4	103736	3293.36507551288	0
4	103908	3295.30911040918	1
4	103908	3295.30911040918	0
4	104092	3304.79856980475	1
4	104092	3304.79856980475	0
4	104429	3308.67994580268	1
4	104429	3308.67994580268	0
4	104642	3315.25136871983	1
4	104642	3315.25136871983	0
4	105128	3339.55294546908	1
4	105128	3339.55294546908	0
4	105368	3346.85635366114	1
4	105368	3346.85635366114	0
4	105935	3362.59682490954	1
4	105935	3362.59682490954	0
4	106149	3367.53270539081	1
4	106149	3367.53270539081	0
4	106368	3375.59296397591	1
4	106368	3375.59296397591	0
4	106609	3385.00234131096	1
4	106609	3385.00234131096	0
4	106817	3390.1934626311	1
4	106817	3390.1934626311	0
4	107627	3438.74953263809	1
4	107627	3438.74953263809	0
4	108112	3452.7937438028	1
4	108112	3452.7937438028	0
4	108492	3460.01225496974	1
4	108492	3460.01225496974	0
4	108776	3470.59972612364	1
4	108776	3470.59972612364	0
4	109226	3479.27893581777	1
4	109226	3479.27893581777	0
4	109351	3481.41585602854	1
4	109351	3481.41585602854	0
4	109503	3488.03444768771	1
4	109503	3488.03444768771	0
4	109613	3490.16103834556	1
4	109613	3490.16103834556	0
4	109757	3498.07669843061	1
4	109757	3498.07669843061	0
4	110153	3512.4963194862	1
4	110153	3512.4963194862	0
4	110456	3519.80906200803	1
4	110456	3519.80906200803	0
4	110795	3526.46305530735	1
4	110795	3526.46305530735	0
4	111044	3529.52515179524	1
4	111044	3529.52515179524	0
4	111301	3537.24965404398	1
4	111301	3537.24965404398	0
4	111517	3540.65113831952	1
4	111540	3541.33413101625	0
4	111651	3552.29052149238	1
4	111651	3552.29052149238	0
4	111834	3559.53382888931	1
4	111834	3559.53382888931	0
4	111959	3561.88466206084	1
4	112091	3564.49579481274	2
4	112100	3567.67722286707	1
4	112103	3569.01507830567	0
4	112205	3575.36725244093	1
4	112205	3575.36725244093	0
4	112357	3579.51644209362	1
4	112359	3580.28319442447	0
4	112486	3584.32584519764	1
4	112486	3584.32584519764	0
5	5344	81.56784909998	1.71213060545
5	5630	94.11853159291	1.7121302497
5	5786	98.42990052166	1.7121306906
5	6156	181.62984128346	1.71213228432
5	6291	186.18185295832	1.71213056742
5	6400	188.11249578226	1.71213065423
5	7010	197.9804356614	1.71213006189
5	7227	201.26129393529	1.71213169811
5	7450	203.44970151072	1.71213003826
5	7736	206.3567233942	1.71213011687
5	8008	209.71215543559	1.71213157681
5	8397	214.35801264568	1.71213026371
5	9158	219.98532216642	1.71213038759
5	9302	221.96684522629	1.71212965774
5	9449	226.27341487723	1.7121296883
5	9638	230.31238186433	1.71213041731
5	9833	233.75455009683	1.71213073432
5	10069	244.74034102417	1.71213028618
5	10294	249.77937510576	1.71212974796
5	10506	261.70283014189	1.71213136129
5	10838	264.70895437266	1.71213060545
5	11017	269.38845573279	1.71213040916
5	11255	275.45099042823	1.7121302497
5	11452	278.03233960749	1.71213009609
5	11593	279.72697054911	1.7121306906
5	11922	354.76586921554	1.7121324946
5	12025	358.49776961433	1.71212978032
5	12485	382.48044168382	1.71213006189
5	13541	407.58195259359	1.71213021296
5	13892	413.70728898213	1.71213040195
5	14037	419.25083727725	1.71213010134
5	14376	422.25540550434	1.71213028618
5	14605	425.24595326955	1.71212974796
5	15289	435.04182561691	1.71213041731
5	15587	445.32740192673	1.71213011687
5	15786	450.50442425945	1.71213009609
5	16034	454.10392605779	1.96212908435
5	16586	464.33222965683	1.7121296883
5	17094	483.0773374357	1.71213344207
5	17443	499.09820367277	1.71213106647
5	17566	503.54253603476	1.71213060545
5	17679	530.14159928026	1.71212978032
5	17925	548.99127774781	1.7121299906
5	18178	559.17323468745	1.71213060812
5	18516	567.27605636811	1.71213003826
5	18667	570.97218490141	3.25244681048
5	18775	575.54408693992	1.71213065423
5	19335	593.20168460175	1.71213040195
5	19630	595.05886089803	1.71213028618
5	19919	597.99218586064	1.71213021296
5	20128	602.08453328803	1.71213026371
5	20641	609.8810321261	1.71213122158
5	21025	621.59083190369	1.71213011687
5	21219	623.54118740984	1.71213009609
5	21562	635.21774598665	1.71212965774
5	21803	637.36090800531	1.71213041731
5	22117	641.3943238467	1.71213056742
5	22337	648.76184976148	1.7121302497
5	22806	661.07616429819	1.7121296883
5	22958	670.78325563484	1.71213093807
5	23170	675.83395653729	1.71212974796
5	23427	679.36877182451	1.71213060545
5	23873	737.09419373306	1.7121299906
5	24127	739.8879332926	1.71213212822
5	24299	746.86986290494	1.71213006189
5	24866	767.66410598623	1.71213003826
5	25331	772.57909516245	1.71213010134
5	25666	776.51776631159	1.71213040195
5	26037	784.59635310814	1.71213028618
5	26260	795.09766718508	1.71213038759
5	26659	810.7337489462	1.71212965774
5	26972	815.27361188613	1.71213026371
5	27316	819.21796645752	1.71213009609
5	27711	842.3609853647	3.33175765357
5	28302	855.69877924178	1.71213344207
5	28487	858.25166186038	1.71213158096
5	28871	865.11024285496	1.7121296883
5	29055	868.12935396448	1.71212974796
5	29372	883.60493410423	1.71213060545
5	29507	894.38323249105	1.71213056742
5	29753	916.07218195809	1.7121299906
5	30259	949.32531674911	1.71213040195
5	30443	951.46749712976	1.71213003826
5	30949	957.23246189995	1.71213006189
5	31057	959.70223332223	2.50684168852
5	31191	962.78905665174	1.71213073432
5	31431	968.21260580028	1.71213109529
5	31813	982.28867980902	1.71213315823
5	32206	989.04413679087	1.7121306906
5	32942	1017.73103424735	1.71213040916
5	33132	1021.79113698274	1.71212965774
5	34129	1052.91495507394	1.71213041731
5	34314	1062.82104331188	1.7121296883
5	34506	1065.9899602705	1.71213026371
5	34734	1071.49337131035	1.71212974796
5	34887	1079.92112875565	1.71213060545
5	35461	1093.55465191627	1.71213011687
5	35595	1096.74790626189	1.7121299906
5	35989	1128.01696453401	1.71213307142
5	36265	1137.04639943693	1.71213006189
5	36683	1141.63812994156	1.71213169811
5	36820	1145.02877819577	1.71213073432
5	37450	1158.27439262135	1.71213010134
5	37741	1175.20981532128	1.71213038759
5	37894	1177.63184541586	1.71213218249
5	38006	1193.53059114274	1.71213065423
5	38134	1201.02139029576	1.71213021296
5	38265	1203.03748803556	1.71212965774
5	38605	1207.01653236342	1.71213040916
5	38966	1211.6026372012	1.71213003826
5	39482	1227.91937824832	1.71213009609
5	39654	1230.77296805492	1.7121302497
5	40064	1236.5802140748	1.7121296883
5	40633	1262.32138293635	1.71213310945
5	40738	1264.04460053926	1.71212974796
5	41207	1288.1738989835	1.7121299906
5	41358	1299.06925120064	1.71213117615
5	41463	1305.30367516346	1.71212978032
5	41754	1314.31475117555	1.71213011687
5	41970	1321.20453415028	2.61646961325
5	42100	1324.10212722041	2.57562738315
5	42285	1328.04759991722	1.71213162796
5	42824	1340.71205587941	1.71213227164
5	43037	1345.55575135556	1.71213006189
5	43199	1349.90519703715	3.25722469556
5	43537	1354.88526858987	1.71213218249
5	43673	1357.73727219208	1.71213311364
5	43807	1360.75094526152	1.71213122158
5	43937	1362.71776068642	1.73638238975
5	44046	1372.59382870707	1.71213021296
5	44180	1377.12990992888	1.71213065423
5	44364	1381.4236614305	1.71212965774
5	44702	1384.8712618958	1.71213512129
5	44932	1397.51275020134	1.71213003826
5	45067	1400.05916524588	1.71213009609
5	45184	1402.19869853945	1.7121302497
5	45448	1406.40969945042	1.7121306906
5	45583	1410.24430533897	1.71213093807
5	45862	1418.11589854068	1.71213026371
5	46053	1419.91431763405	1.71213136129
5	46390	1432.72753953602	1.7121296883
5	47000	1447.73256120619	1.71213106647
5	47226	1462.69046128189	1.7121299906
5	47571	1494.01320600317	1.71213011687
5	47721	1496.55517902329	1.71213073432
5	48104	1519.41576931815	1.71213359929
5	48511	1526.41164706991	1.71213010134
5	48710	1528.67874655066	1.76012261276
5	49114	1544.46337759309	1.71213038759
5	49418	1552.87537021155	1.71213040195
5	49596	1556.06449991645	1.71212978032
5	49842	1561.69095196069	1.71213065423
5	50127	1565.81251865072	1.71213040916
5	50611	1583.05277345008	1.71212965774
5	50805	1586.62687995063	1.71213003826
5	51474	1604.82799743899	1.71213209774
5	51635	1608.65198180878	1.7121296883
5	52153	1616.99937352987	1.71213009609
5	52416	1623.61890049217	5.22879541592
5	52545	1626.35883528798	1.71213106647
5	52666	1631.31460481344	1.71213026371
5	52785	1633.94607294493	1.7121299906
5	53292	1652.09967398022	1.71213368015
5	53586	1675.04497382427	1.71213073432
5	53773	1680.16324279407	1.71213215739
5	53880	1683.84852394113	1.71213011687
5	54090	1698.44540607552	1.71213109529
5	54434	1701.86527662625	3.15556969209
5	54602	1705.98980756592	1.71213006189
5	54733	1722.26939727401	1.71213038759
5	55314	1745.42736534569	1.71213028618
5	55641	1753.11888101688	1.71212978032
5	55801	1755.16872088975	1.71213158096
5	56024	1762.39483137063	1.71213003826
5	56470	1767.17528460986	1.71213021296
5	57035	1777.9304634694	1.71213216174
5	57218	1782.59832951384	1.71213041731
5	57662	1800.80392130197	1.71212974796
5	57862	1803.58668313063	1.71213026371
5	58585	1815.51666667596	1.7121299906
5	58729	1817.40902753587	1.71213060545
5	58963	1840.47441751034	1.7121296883
5	59166	1853.42962643028	1.71213073432
5	59348	1855.88060970746	1.71213117615
5	59462	1867.93972705847	1.71213011687
5	59820	1874.10420616496	1.71213010134
5	60453	1901.65870681382	1.71213311212
5	60666	1907.91763740128	1.71213038759
5	61384	1930.35241678447	1.71212978032
5	61535	1935.01298141784	1.71213028618
5	61656	1941.5525913694	1.71213065423
5	61789	1944.88939671275	1.71213003826
5	62041	1947.50603896466	1.7121306906
5	63213	1971.51117999991	4.15152897996
5	63331	1975.7954746781	1.71213026371
5	63457	1977.77632866558	1.71213009609
5	63741	1986.74087845998	1.7121299906
5	63945	1993.90984365134	1.71213060545
5	64622	2015.56547164753	1.71213040916
5	64915	2027.25314975353	1.71213225196
5	65264	2042.33541280971	1.71213117615
5	65540	2050.55105776694	1.71213011687
5	65964	2059.31481757396	1.71213073432
5	66203	2078.03868744162	1.71213060812
5	66582	2087.2517388112	1.71213040195
5	67094	2107.35870943835	1.71212978032
5	67345	2119.15256379018	1.71213006189
5	68032	2136.56635940925	1.71213021296
5	68280	2141.19562138399	1.71212965774
5	68471	2144.26260820273	1.71213003826
5	68761	2151.00642257528	1.71213279018
5	69270	2164.38816277556	1.71213065423
5	69526	2178.01525888059	1.71213026371
5	69764	2181.7157419054	1.71213060545
5	70099	2191.62850595581	1.7121299906
5	70232	2202.01398200865	1.7121302497
5	70918	2226.23316884869	1.71213010134
5	71042	2231.37841812238	1.71213011687
5	71334	2248.54278269537	1.7121296883
5	71739	2256.11842460916	1.71212974796
5	72299	2270.19217902376	1.71213040195
5	72490	2278.04642856142	1.71213289159
5	72617	2279.80557170671	1.71213158096
5	73425	2314.28619127897	1.71212978032
5	73615	2317.15698106398	1.71212965774
5	73992	2328.11611526514	1.71213003826
5	74339	2336.16717211093	1.71213065423
5	74810	2350.95414176026	1.71213009609
5	74936	2353.37985230426	1.71213041731
5	75189	2365.34765559554	1.71213060545
5	75521	2376.04533266682	1.7121302497
5	75667	2380.58724546496	1.71213026371
5	75787	2383.47316340031	1.7121299906
5	75994	2387.63196523009	1.71213093807
5	76180	2392.93087301903	1.71213106647
5	76557	2416.57650928835	1.71213368015
5	76784	2421.85756478177	1.71213010134
5	76980	2424.63920267053	1.71213109529
5	77143	2427.69662673444	1.71213011687
5	77283	2431.81563451507	1.7121296883
5	77959	2457.86888166988	1.71213040195
5	78569	2471.65942395887	1.71213122158
5	78675	2476.77643227709	1.71212974796
5	79028	2491.77362757881	1.71212965774
5	79156	2497.07703885644	1.71212978032
5	79633	2513.57746907033	1.71213270066
5	79747	2517.41756737335	1.71213065423
5	79890	2524.9657853629	1.71213028618
5	80277	2538.59001345862	1.71213307142
5	80505	2543.00874041224	1.71213009609
5	80738	2551.22307779306	1.71213006189
5	80866	2554.63551103957	1.7121302497
5	81572	2564.15343186951	1.71213041731
5	81914	2573.97678759666	1.71213021296
5	82373	2597.84741013344	1.71213040916
5	82563	2601.92928453513	1.71213011687
5	83333	2626.73954723489	1.71213073432
5	84128	2657.2595293208	1.71213122158
5	84399	2669.3503462117	1.71213289159
5	84559	2674.45181993691	1.71212974796
5	84848	2678.32018756849	1.71212965774
5	85261	2699.96296728873	1.71213028618
5	85680	2712.70547986923	1.71213056742
5	86036	2726.79883101993	1.71213006189
5	86922	2738.89857232902	1.7121302497
5	87070	2743.0548703709	1.71213041731
5	87198	2748.98580803625	1.71213003826
5	87323	2753.30921522574	1.71213021296
5	88047	2775.66138732448	1.71213106647
5	88309	2786.47470848643	1.71213040916
5	88881	2807.86925963027	1.71213011687
5	89022	2810.60481237192	1.71213010134
5	89146	2813.6057541769	1.71213040195
5	89298	2815.87776938772	1.71213117615
5	89432	2833.90342385648	1.71213169811
5	89771	2838.93706204365	1.71213060812
5	90022	2847.61792691101	1.71213073432
5	90236	2857.08436063711	1.71213038759
5	90423	2864.94557239745	1.71212974796
5	90932	2884.52311640863	1.71212965774
5	91532	2902.88322312246	1.7121299906
5	91939	2909.47859815962	1.71213026371
5	92138	2913.01361063049	1.71213093807
5	92773	2916.50556481736	1.71213260009
5	93070	2928.30767496353	1.71213003826
5	93410	2946.69349902038	1.71213021296
5	93945	2967.99444399434	1.71213261729
5	94230	2982.76697876632	1.71213010134
5	94460	2987.56387359035	1.71213011687
5	94729	2992.77709468219	4.4102337388
5	95434	3026.82517101266	1.7121296883
5	95728	3043.11638431964	1.71213323832
5	95882	3045.71880239742	1.71212978032
5	96339	3058.15235590861	1.71212974796
5	96600	3071.72880851368	1.71213028618
5	96878	3082.49128401767	1.71213038759
5	97334	3086.13806423154	1.7121299906
5	97597	3094.81833778102	1.71213009609
5	97797	3101.45427236847	1.71213136129
5	98067	3104.47728939634	1.71213041731
5	98246	3106.32360376703	1.71213003826
5	98495	3122.89338574258	1.71213006189
5	98752	3133.73664921117	1.71213021296
5	99566	3156.69290023668	1.71213212822
5	99727	3164.61871120602	1.71213307142
5	99954	3172.94046820422	1.71213010134
5	100180	3182.11765318756	1.71213011687
5	100393	3188.2910470223	1.71213266613
5	100559	3193.60619986828	1.71213040195
5	100815	3199.20781197876	1.71213106647
5	100920	3201.48666030294	1.71213040916
5	101328	3208.31401353369	6.57877032171
5	101333	3212.80966054668	8.0213997345
5	101455	3221.09871820588	1.71213073432
5	101817	3244.17467539277	1.71213028618
5	102341	3257.61327787955	1.71213122158
5	102495	3259.39661007707	1.71213038759
5	102709	3262.35533891497	1.71213093807
5	103050	3277.90897563115	1.71213009609
5	103382	3281.18292429916	1.7121299906
5	103736	3293.36507551288	1.7121331946
5	103908	3295.30911040918	1.71213060545
5	104092	3304.79856980475	1.71213041731
5	104429	3308.67994580268	1.71213003826
5	104642	3315.25136871983	1.71213136129
5	105128	3339.55294546908	1.71213006189
5	105368	3346.85635366114	1.71213021296
5	106149	3367.53270539081	1.71213117615
5	106368	3375.59296397591	1.71212965774
5	106609	3385.00234131096	1.7121296883
5	106817	3390.1934626311	1.71213106647
5	107627	3438.74953263809	1.71213279018
5	108112	3452.7937438028	1.71212978032
5	108492	3460.01225496974	1.71213122158
5	108776	3470.59972612364	1.71213009609
5	109226	3479.27893581777	1.7121299906
5	109351	3481.41585602854	1.7121302497
5	109503	3488.03444768771	1.71213060545
5	109613	3490.16103834556	1.71213040916
5	109757	3498.07669843061	1.71213041731
5	110153	3512.4963194862	1.71213006189
5	110456	3519.80906200803	1.71213010134
5	110795	3526.46305530735	1.71213021296
5	111044	3529.52515179524	1.71213026371
5	111540	3541.33413101625	2.39512273499
5	111651	3552.29052149238	1.71213011687
5	111834	3559.53382888931	1.71213290595
5	112103	3569.01507830567	8.84254685295
5	112205	3575.36725244093	1.71212965774
5	112359	3580.28319442447	2.478883507
5	112486	3584.32584519764	1.71213056742
6	5344	81.56784909998	1.71213060545
6	5630	94.11853159291	1.7121302497
6	5786	98.42990052166	1.7121306906
6	6156	181.62984128346	1.71213228432
6	6291	186.18185295832	1.71213056742
6	6400	188.11249578226	1.71213065423
6	7010	197.9804356614	1.71213006189
6	7227	201.26129393529	1.71213169811
6	7450	203.44970151072	1.71213003826
6	7736	206.3567233942	1.71213011687
6	8008	209.71215543559	1.71213157681
6	8397	214.35801264568	1.71213026371
6	9158	219.98532216642	1.71213038759
6	9302	221.96684522629	1.71212965774
6	9449	226.27341487723	1.7121296883
6	9638	230.31238186433	1.71213041731
6	9833	233.75455009683	1.71213073432
6	10069	244.74034102417	1.71213028618
6	10294	249.77937510576	1.71212974796
6	10506	261.70283014189	1.71213136129
6	10838	264.70895437266	1.71213060545
6	11017	269.38845573279	1.71213040916
6	11255	275.45099042823	1.7121302497
6	11452	278.03233960749	1.71213009609
6	11593	279.72697054911	1.7121306906
6	11922	354.76586921554	1.7121324946
6	12025	358.49776961433	1.71212978032
6	12485	382.48044168382	1.71213006189
6	13541	407.58195259359	1.71213021296
6	13892	413.70728898213	1.71213040195
6	14037	419.25083727725	1.71213010134
6	14376	422.25540550434	1.71213028618
6	14605	425.24595326955	1.71212974796
6	15289	435.04182561691	1.71213041731
6	15587	445.32740192673	1.71213011687
6	15786	450.50442425945	1.71213009609
6	16034	454.10392605779	1.96212908435
6	16586	464.33222965683	1.7121296883
6	17094	483.0773374357	1.71213344207
6	17443	499.09820367277	1.71213106647
6	17566	503.54253603476	1.71213060545
6	17679	530.14159928026	1.71212978032
6	17925	548.99127774781	1.7121299906
6	18178	559.17323468745	1.71213060812
6	18516	567.27605636811	1.71213003826
6	18667	570.97218490141	3.25244681048
6	18775	575.54408693992	1.71213065423
6	19335	593.20168460175	1.71213040195
6	19630	595.05886089803	1.71213028618
6	19919	597.99218586064	1.71213021296
6	20128	602.08453328803	1.71213026371
6	20641	609.8810321261	1.71213122158
6	21025	621.59083190369	1.71213011687
6	21219	623.54118740984	1.71213009609
6	21562	635.21774598665	1.71212965774
6	21803	637.36090800531	1.71213041731
6	22117	641.3943238467	1.71213056742
6	22337	648.76184976148	1.7121302497
6	22806	661.07616429819	1.7121296883
6	22958	670.78325563484	1.71213093807
6	23170	675.83395653729	1.71212974796
6	23427	679.36877182451	1.71213060545
6	23873	737.09419373306	1.7121299906
6	24127	739.8879332926	1.71213212822
6	24299	746.86986290494	1.71213006189
6	24866	767.66410598623	1.71213003826
6	25331	772.57909516245	1.71213010134
6	25666	776.51776631159	1.71213040195
6	26037	784.59635310814	1.71213028618
6	26260	795.09766718508	1.71213038759
6	26659	810.7337489462	1.71212965774
6	26972	815.27361188613	1.71213026371
6	27316	819.21796645752	1.71213009609
6	27711	842.3609853647	3.33175765357
6	28302	855.69877924178	1.71213344207
6	28487	858.25166186038	1.71213158096
6	28871	865.11024285496	1.7121296883
6	29055	868.12935396448	1.71212974796
6	29372	883.60493410423	1.71213060545
6	29507	894.38323249105	1.71213056742
6	29753	916.07218195809	1.7121299906
6	30259	949.32531674911	1.71213040195
6	30443	951.46749712976	1.71213003826
6	30949	957.23246189995	1.71213006189
6	31057	959.70223332223	2.50684168852
6	31191	962.78905665174	1.71213073432
6	31431	968.21260580028	1.71213109529
6	31813	982.28867980902	1.71213315823
6	32206	989.04413679087	1.7121306906
6	32942	1017.73103424735	1.71213040916
6	33132	1021.79113698274	1.71212965774
6	34129	1052.91495507394	1.71213041731
6	34314	1062.82104331188	1.7121296883
6	34506	1065.9899602705	1.71213026371
6	34734	1071.49337131035	1.71212974796
6	34887	1079.92112875565	1.71213060545
6	35461	1093.55465191627	1.71213011687
6	35595	1096.74790626189	1.7121299906
6	35989	1128.01696453401	1.71213307142
6	36265	1137.04639943693	1.71213006189
6	36683	1141.63812994156	1.71213169811
6	36820	1145.02877819577	1.71213073432
6	37450	1158.27439262135	1.71213010134
6	37741	1175.20981532128	1.71213038759
6	37894	1177.63184541586	1.71213218249
6	38006	1193.53059114274	1.71213065423
6	38134	1201.02139029576	1.71213021296
6	38265	1203.03748803556	1.71212965774
6	38605	1207.01653236342	1.71213040916
6	38966	1211.6026372012	1.71213003826
6	39482	1227.91937824832	1.71213009609
6	39654	1230.77296805492	1.7121302497
6	40064	1236.5802140748	1.7121296883
6	40633	1262.32138293635	1.71213310945
6	40738	1264.04460053926	1.71212974796
6	41207	1288.1738989835	1.7121299906
6	41358	1299.06925120064	1.71213117615
6	41463	1305.30367516346	1.71212978032
6	41754	1314.31475117555	1.71213011687
6	41970	1321.20453415028	2.61646961325
6	42100	1324.10212722041	2.57562738315
6	42285	1328.04759991722	1.71213162796
6	42824	1340.71205587941	1.71213227164
6	43037	1345.55575135556	1.71213006189
6	43199	1349.90519703715	3.25722469556
6	43537	1354.88526858987	1.71213218249
6	43673	1357.73727219208	1.71213311364
6	43807	1360.75094526152	1.71213122158
6	43937	1362.71776068642	1.73638238975
6	44046	1372.59382870707	1.71213021296
6	44180	1377.12990992888	1.71213065423
6	44364	1381.4236614305	1.71212965774
6	44702	1384.8712618958	1.71213512129
6	44932	1397.51275020134	1.71213003826
6	45067	1400.05916524588	1.71213009609
6	45184	1402.19869853945	1.7121302497
6	45448	1406.40969945042	1.7121306906
6	45583	1410.24430533897	1.71213093807
6	45862	1418.11589854068	1.71213026371
6	46053	1419.91431763405	1.71213136129
6	46390	1432.72753953602	1.7121296883
6	47000	1447.73256120619	1.71213106647
6	47226	1462.69046128189	1.7121299906
6	47571	1494.01320600317	1.71213011687
6	47721	1496.55517902329	1.71213073432
6	48104	1519.41576931815	1.71213359929
6	48511	1526.41164706991	1.71213010134
6	48710	1528.67874655066	1.76012261276
6	49114	1544.46337759309	1.71213038759
6	49418	1552.87537021155	1.71213040195
6	49596	1556.06449991645	1.71212978032
6	49842	1561.69095196069	1.71213065423
6	50127	1565.81251865072	1.71213040916
6	50611	1583.05277345008	1.71212965774
6	50805	1586.62687995063	1.71213003826
6	51474	1604.82799743899	1.71213209774
6	51635	1608.65198180878	1.7121296883
6	52153	1616.99937352987	1.71213009609
6	52416	1623.61890049217	5.22879541592
6	52545	1626.35883528798	1.71213106647
6	52666	1631.31460481344	1.71213026371
6	52785	1633.94607294493	1.7121299906
6	53292	1652.09967398022	1.71213368015
6	53586	1675.04497382427	1.71213073432
6	53773	1680.16324279407	1.71213215739
6	53880	1683.84852394113	1.71213011687
6	54090	1698.44540607552	1.71213109529
6	54434	1701.86527662625	3.15556969209
6	54602	1705.98980756592	1.71213006189
6	54733	1722.26939727401	1.71213038759
6	55314	1745.42736534569	1.71213028618
6	55641	1753.11888101688	1.71212978032
6	55801	1755.16872088975	1.71213158096
6	56024	1762.39483137063	1.71213003826
6	56470	1767.17528460986	1.71213021296
6	57035	1777.9304634694	1.71213216174
6	57218	1782.59832951384	1.71213041731
6	57662	1800.80392130197	1.71212974796
6	57862	1803.58668313063	1.71213026371
6	58585	1815.51666667596	1.7121299906
6	58729	1817.40902753587	1.71213060545
6	58963	1840.47441751034	1.7121296883
6	59166	1853.42962643028	1.71213073432
6	59348	1855.88060970746	1.71213117615
6	59462	1867.93972705847	1.71213011687
6	59820	1874.10420616496	1.71213010134
6	60453	1901.65870681382	1.71213311212
6	60666	1907.91763740128	1.71213038759
6	61384	1930.35241678447	1.71212978032
6	61535	1935.01298141784	1.71213028618
6	61656	1941.5525913694	1.71213065423
6	61789	1944.88939671275	1.71213003826
6	62041	1947.50603896466	1.7121306906
6	63213	1971.51117999991	4.15152897996
6	63331	1975.7954746781	1.71213026371
6	63457	1977.77632866558	1.71213009609
6	63741	1986.74087845998	1.7121299906
6	63945	1993.90984365134	1.71213060545
6	64622	2015.56547164753	1.71213040916
6	64915	2027.25314975353	1.71213225196
6	65264	2042.33541280971	1.71213117615
6	65540	2050.55105776694	1.71213011687
6	65964	2059.31481757396	1.71213073432
6	66203	2078.03868744162	1.71213060812
6	66582	2087.2517388112	1.71213040195
6	67094	2107.35870943835	1.71212978032
6	67345	2119.15256379018	1.71213006189
6	68032	2136.56635940925	1.71213021296
6	68280	2141.19562138399	1.71212965774
6	68471	2144.26260820273	1.71213003826
6	68761	2151.00642257528	1.71213279018
6	69270	2164.38816277556	1.71213065423
6	69526	2178.01525888059	1.71213026371
6	69764	2181.7157419054	1.71213060545
6	70099	2191.62850595581	1.7121299906
6	70232	2202.01398200865	1.7121302497
6	70918	2226.23316884869	1.71213010134
6	71042	2231.37841812238	1.71213011687
6	71334	2248.54278269537	1.7121296883
6	71739	2256.11842460916	1.71212974796
6	72299	2270.19217902376	1.71213040195
6	72490	2278.04642856142	1.71213289159
6	72617	2279.80557170671	1.71213158096
6	73425	2314.28619127897	1.71212978032
6	73615	2317.15698106398	1.71212965774
6	73992	2328.11611526514	1.71213003826
6	74339	2336.16717211093	1.71213065423
6	74810	2350.95414176026	1.71213009609
6	74936	2353.37985230426	1.71213041731
6	75189	2365.34765559554	1.71213060545
6	75521	2376.04533266682	1.7121302497
6	75667	2380.58724546496	1.71213026371
6	75787	2383.47316340031	1.7121299906
6	75994	2387.63196523009	1.71213093807
6	76180	2392.93087301903	1.71213106647
6	76557	2416.57650928835	1.71213368015
6	76784	2421.85756478177	1.71213010134
6	76980	2424.63920267053	1.71213109529
6	77143	2427.69662673444	1.71213011687
6	77283	2431.81563451507	1.7121296883
6	77959	2457.86888166988	1.71213040195
6	78569	2471.65942395887	1.71213122158
6	78675	2476.77643227709	1.71212974796
6	79028	2491.77362757881	1.71212965774
6	79156	2497.07703885644	1.71212978032
6	79633	2513.57746907033	1.71213270066
6	79747	2517.41756737335	1.71213065423
6	79890	2524.9657853629	1.71213028618
6	80277	2538.59001345862	1.71213307142
6	80505	2543.00874041224	1.71213009609
6	80738	2551.22307779306	1.71213006189
6	80866	2554.63551103957	1.7121302497
6	81572	2564.15343186951	1.71213041731
6	81914	2573.97678759666	1.71213021296
6	82373	2597.84741013344	1.71213040916
6	82563	2601.92928453513	1.71213011687
6	83333	2626.73954723489	1.71213073432
6	84128	2657.2595293208	1.71213122158
6	84399	2669.3503462117	1.71213289159
6	84559	2674.45181993691	1.71212974796
6	84848	2678.32018756849	1.71212965774
6	85261	2699.96296728873	1.71213028618
6	85680	2712.70547986923	1.71213056742
6	86036	2726.79883101993	1.71213006189
6	86922	2738.89857232902	1.7121302497
6	87070	2743.0548703709	1.71213041731
6	87198	2748.98580803625	1.71213003826
6	87323	2753.30921522574	1.71213021296
6	88047	2775.66138732448	1.71213106647
6	88309	2786.47470848643	1.71213040916
6	88881	2807.86925963027	1.71213011687
6	89022	2810.60481237192	1.71213010134
6	89146	2813.6057541769	1.71213040195
6	89298	2815.87776938772	1.71213117615
6	89432	2833.90342385648	1.71213169811
6	89771	2838.93706204365	1.71213060812
6	90022	2847.61792691101	1.71213073432
6	90236	2857.08436063711	1.71213038759
6	90423	2864.94557239745	1.71212974796
6	90932	2884.52311640863	1.71212965774
6	91532	2902.88322312246	1.7121299906
6	91939	2909.47859815962	1.71213026371
6	92138	2913.01361063049	1.71213093807
6	92773	2916.50556481736	1.71213260009
6	93070	2928.30767496353	1.71213003826
6	93410	2946.69349902038	1.71213021296
6	93945	2967.99444399434	1.71213261729
6	94230	2982.76697876632	1.71213010134
6	94460	2987.56387359035	1.71213011687
6	94729	2992.77709468219	4.4102337388
6	95434	3026.82517101266	1.7121296883
6	95728	3043.11638431964	1.71213323832
6	95882	3045.71880239742	1.71212978032
6	96339	3058.15235590861	1.71212974796
6	96600	3071.72880851368	1.71213028618
6	96878	3082.49128401767	1.71213038759
6	97334	3086.13806423154	1.7121299906
6	97597	3094.81833778102	1.71213009609
6	97797	3101.45427236847	1.71213136129
6	98067	3104.47728939634	1.71213041731
6	98246	3106.32360376703	1.71213003826
6	98495	3122.89338574258	1.71213006189
6	98752	3133.73664921117	1.71213021296
6	99566	3156.69290023668	1.71213212822
6	99727	3164.61871120602	1.71213307142
6	99954	3172.94046820422	1.71213010134
6	100180	3182.11765318756	1.71213011687
6	100393	3188.2910470223	1.71213266613
6	100559	3193.60619986828	1.71213040195
6	100815	3199.20781197876	1.71213106647
6	100920	3201.48666030294	1.71213040916
6	101328	3208.31401353369	6.57877032171
6	101333	3212.80966054668	8.0213997345
6	101455	3221.09871820588	1.71213073432
6	101817	3244.17467539277	1.71213028618
6	102341	3257.61327787955	1.71213122158
6	102495	3259.39661007707	1.71213038759
6	102709	3262.35533891497	1.71213093807
6	103050	3277.90897563115	1.71213009609
6	103382	3281.18292429916	1.7121299906
6	103736	3293.36507551288	1.7121331946
6	103908	3295.30911040918	1.71213060545
6	104092	3304.79856980475	1.71213041731
6	104429	3308.67994580268	1.71213003826
6	104642	3315.25136871983	1.71213136129
6	105128	3339.55294546908	1.71213006189
6	105368	3346.85635366114	1.71213021296
6	106149	3367.53270539081	1.71213117615
6	106368	3375.59296397591	1.71212965774
6	106609	3385.00234131096	1.7121296883
6	106817	3390.1934626311	1.71213106647
6	107627	3438.74953263809	1.71213279018
6	108112	3452.7937438028	1.71212978032
6	108492	3460.01225496974	1.71213122158
6	108776	3470.59972612364	1.71213009609
6	109226	3479.27893581777	1.7121299906
6	109351	3481.41585602854	1.7121302497
6	109503	3488.03444768771	1.71213060545
6	109613	3490.16103834556	1.71213040916
6	109757	3498.07669843061	1.71213041731
6	110153	3512.4963194862	1.71213006189
6	110456	3519.80906200803	1.71213010134
6	110795	3526.46305530735	1.71213021296
6	111044	3529.52515179524	1.71213026371
6	111540	3541.33413101625	2.39512273499
6	111651	3552.29052149238	1.71213011687
6	111834	3559.53382888931	1.71213290595
6	112103	3569.01507830567	8.84254685295
6	112205	3575.36725244093	1.71212965774
6	112359	3580.28319442447	2.478883507
6	112486	3584.32584519764	1.71213056742
7	5356	82.0547325105	298.58854057014
7	10669	263.14811788697	209.2426565156
7	15317	437.07593778124	1493.5363966726
7	20517	609.27699719464	150.43079954824
7	26802	814.26091334254	881.89409912633
7	31875	986.69101759917	788.57479297038
7	37535	1164.21576741061	324.74900880412
7	43200	1350.30100880127	899.57628700055
7	49016	1543.87540736938	87.493879268767
7	56101	1763.57554769071	942.08589250948
7	62166	1951.76961957534	139.38141063511
7	68611	2150.62674574726	752.17503556785
7	74965	2358.03134422163	28.93782643896
7	82063	2585.71556907284	1054.3962914301
7	87410	2759.68570171169	427.5126094676
7	93447	2958.99623749033	168.89297098671
7	98898	3142.73813714271	977.05099185712
7	104520	3314.99518116746	5.7299936300868
7	111307	3538.89227325015	98.250254515864
8	5534	92.40640134321	769.28947258
8	11157	273.73886017853	198.17468617406
8	15802	452.14179697344	698.65900976621
8	22190	647.04971951178	515.77221742698
8	28954	867.43559397535	344.77105434053
8	33680	1047.24457957402	42.833387321566
8	39500	1229.06083780522	1197.4925908758
8	45082	1400.48656828975	308.78542923967
8	50827	1586.90151681393	857.19490718245
8	56674	1775.52667317169	696.67445293054
8	64064	1997.83848349839	18.164870114967
8	70136	2200.30185175895	234.15894886444
8	75425	2374.33320241712	1379.2769732503
8	80767	2552.92338078987	1915.8184783752
8	86823	2737.18644207932	283.28916940726
8	92305	2914.38255353415	1313.6687905185
8	98526	3129.28640114361	43.767506949936
8	104165	3305.87032001693	348.30524382466
8	109248	3479.70372577884	593.99396291513
9	5662	96.71776983106	327.74365403844
9	11342	278.01483985851	244.97214620863
9	16305	456.89406195539	270.4610573669
9	21461	634.10878830982	1349.5967929271
9	26351	808.5909256676	263.20304140795
9	31979	987.33200610027	202.12762056955
9	39695	1233.23505592173	778.57985408091
9	45272	1404.69756875982	282.84785052787
9	50701	1586.42146350532	322.72354936973
9	56045	1763.14685365271	304.1949018421
9	61866	1945.79390827406	499.01186933228
9	67369	2119.66651747013	1.276228288964
9	73328	2313.51610145297	141.70329096571
9	80283	2540.52665878409	524.64257793502
9	85696	2717.01215419825	38.299223574237
9	92248	2913.53016389067	35.962046452501
9	98286	3113.60581432666	1045.0341904235
9	103586	3291.65294231828	217.13943530106
9	108613	3469.50366813788	1225.8175202906
10	5796	176.99074168872	38.31954932973
10	13568	407.75249048623	19.386922715288
10	18806	582.0262673281	947.97315530331
10	24763	766.4522187466	129.85467292085
10	29891	938.28090892577	1406.8216903188
10	35991	1128.10154333422	1139.2397900089
10	42163	1328.0388817444	1010.9668849264
10	48238	1523.67845139207	59.900372739891
10	53968	1697.07601376701	1075.3181831096
10	59544	1869.63504387411	95.028459399925
10	65618	2051.5455977874	1017.861269343
10	70703	2222.88318135319	266.79501155772
10	76858	2424.58515321911	403.45112749152
10	87357	2759.19730156503	16.286801249048
10	93098	2940.20143808079	59.612534408295
10	99060	3149.39805333667	432.3761203186
10	105514	3354.70377862244	840.73680145528
11	5900	178.94980829741	1167.7464454519
11	11772	353.05373672094	1541.7774257034
11	17823	547.27914775721	318.86694203073
11	23715	735.38206374246	1221.1293984265
11	29651	914.36005196749	1061.6656887724
11	35490	1095.03577627129	1135.0278851573
11	41105	1286.4617689929	325.73915387762
11	47124	1460.97833129129	1961.2171014546
11	52680	1632.23394295433	339.68922863117
11	58426	1813.80453668536	97.777524647612
11	63535	1985.02874846938	155.05906600007
11	69944	2189.91637596521	636.77126915202
11	75682	2381.76103340971	863.91830618701
11	80894	2554.67845974547	427.51037443165
11	86170	2729.18595509968	530.52785466742
11	91430	2901.17109313186	425.80452293427
11	97068	3084.42593424094	338.91681917599
11	103170	3279.47079430856	753.76041680467
11	109122	3477.56680582717	779.58737872227
12	5954	179.91770899914	593.16548700183
12	11928	356.78563983401	446.0791232536
12	17583	528.42946949994	639.41997589178
12	23559	731.09705468158	12.346006768118
12	29520	905.26195751333	48.368766481815
12	34899	1081.08938200237	36.753963985114
12	41367	1303.59154538314	509.58813654084
12	49444	1554.35237013613	110.01288022697
12	55493	1751.40675123656	191.98793894709
12	61237	1928.64028700415	495.29280395218
12	66890	2105.64657965803	1171.9487219635
12	73171	2312.57406149865	680.16577331754
12	79057	2495.36490907612	254.3119992246
12	84642	2676.59161284201	325.93203449917
12	90326	2863.87662296379	344.16875625159
12	95730	3044.0066726171	942.62257860867
12	101464	3224.34387432164	0.60802545119899
12	107912	3451.08161402248	211.82799318319
13	6168	184.4697223909	558.53079989579
13	12731	387.43043308576	28.494764955512
13	21938	639.68219327928	273.90459204159
13	29389	892.67110192363	301.04923930697
13	35788	1126.30483146259	311.514477127
13	41498	1310.98405402734	1437.7251845396
13	48346	1524.7685133221	951.69021954487
13	54196	1698.87704146804	481.27388579428
13	60063	1883.3547194429	28.400291238523
13	66272	2085.51093986198	2041.516714053
13	71935	2267.10155090924	1449.2589163536
13	80123	2536.8778803872	842.64499162549
13	85560	2710.99334930181	1796.6155007841
13	90726	2882.67340442002	956.75053025956
13	99577	3162.9065781346	1585.0435269632
13	106027	3367.33893312904	171.35555629973
13	112365	3582.61371463022	200.18165338297
14	6298	186.40036512803	751.39165617529
14	12678	387.16454641443	855.40464369367
14	18675	573.83195628569	250.51560099864
14	24330	757.35048983819	317.40925122931
14	31663	980.57654665079	236.47983881038
14	37906	1191.81846048851	98.879640889901
14	44077	1375.41777927465	1159.9688180726
14	49684	1559.97882130646	1010.7447146374
14	55439	1750.90429998751	53.702499266847
14	61556	1939.84046071517	154.22543042769
14	69119	2162.67603212133	354.99246945208
14	74186	2334.4550414567	132.94934634893
14	79644	2515.70543671912	1885.0639611902
14	85099	2698.99404162521	1023.8264558574
14	91181	2891.86240589914	1404.530461166
14	96623	3079.66106018308	698.66313335821
14	103225	3280.54057125313	41.122736596964
14	110346	3518.79326316004	127.18486122867
15	6435	192.80975192898	69.922657403973
15	13678	410.78345275396	2121.8902526769
15	21105	622.13017155186	909.06702498205
15	27770	843.8784361953	662.16854772515
15	33029	1020.26778754805	1715.1122037408
15	38289	1203.18294561098	544.85611395125
15	44496	1383.15912677451	2123.2907771744
15	51045	1590.25011407882	937.4271364605
15	56516	1772.51247289419	1382.6347657608
15	64929	2031.29030902513	2682.2579100417
15	76300	2412.05875165863	118.22083031285
15	82462	2600.37043912536	396.45055345979
15	88389	2787.30353889541	523.97642232657
15	93716	2966.28231137705	83.680366617273
15	99005	3147.82708531721	120.69904601958
15	104869	3335.13292136293	414.73469834009
15	110573	3520.61736998426	747.87844240284
16	6488	193.29327514635	236.62300687572
16	17707	530.45945926545	463.92974478329
16	24383	757.54549851032	43.033793620083
16	32334	995.27577733174	971.75478669589
16	38637	1207.73199726872	308.85243971263
16	47735	1503.28519158415	1311.5385439304
16	53648	1678.45111063668	67.351327847492
16	59489	1868.25009372517	10.002654222789
16	65269	2043.35498235164	215.06361321356
16	71358	2249.24008437257	1003.7401910826
16	77309	2434.14360561782	247.80685478227
16	83213	2626.70714406933	618.38169770199
16	90033	2853.09577213131	861.96589321678
16	95578	3042.55100939299	607.15028122181
16	101598	3233.09228874566	220.21465149452
16	106935	3410.1009092154	2876.6242599644
17	6643	195.10883224576	1727.6268997797
17	12516	385.2807317527	604.78684806685
17	18007	557.46110407933	1813.0525230985
17	23769	736.31607850288	71.40130837944
17	30584	954.76196021233	325.73176876106
17	36884	1146.7767234736	32.108544083341
17	42830	1343.16816750746	224.86000612065
17	48836	1540.62901059637	22.167663084473
17	54763	1723.86616667656	36.601497115968
17	60303	1899.9465737017	168.84860427325
17	66032	2076.3265568335	64.555477218789
17	71988	2267.14726669507	155.84836923896
17	77640	2449.06713268264	101.79302892251
17	83447	2629.04654388826	183.17076593188
17	89596	2837.22493143553	214.09365648195
17	94957	3009.26550131915	885.48292496088
17	101005	3202.53237115024	161.87958713874
17	106268	3374.76285370974	808.0483143578
17	111836	3560.17253145272	61.043954520725
18	6697	195.57909820609	783.61948061085
18	14397	423.51253725173	23.477382516026
18	20198	604.98672092793	49.21057387178
18	25694	777.50978820728	197.44039440818
18	31819	985.0800392802	73.708146987784
18	37340	1157.62393577555	456.20108734146
18	43545	1356.02513907844	137.94598197687
18	49740	1561.2474345522	793.59630086663
18	56157	1764.60059579913	387.24112026679
18	62728	1960.76794697041	99.402286408635
18	68067	2138.25223204403	601.96674122338
18	74132	2333.65663419857	638.29334553036
[...]
30	49498	1555.84215296702	549.50822097808
30	55094	1738.30139958273	907.11757372455
30	60936	1915.99723759045	754.58959688055
30	66786	2103.12947558468	903.02403789417
30	72628	2283.13256011251	23.006677438045
30	78441	2469.94729273729	264.00085733607
30	84003	2655.54739809922	549.63883672271
30	89436	2835.44885461702	30.238681923778
30	95175	3023.43872271259	1356.1254717322
30	102166	3255.90114665797	764.74836014544
30	108312	3458.30012374816	711.38524641061
31	8178	212.64588238197	605.97084465459
31	14698	428.64642902771	56.082568239576
31	19957	600.37240302432	551.04294074864
31	26746	813.56148162242	994.9173730979
31	34391	1064.27783000679	1505.4633196223
31	39963	1236.45839197527	285.19534098237
31	45647	1416.40376827697	606.1117032553
31	52552	1629.60247454973	755.66889294954
31	57692	1801.87455286692	132.78040914325
31	63220	1974.08334441439	450.35574444257
31	69415	2176.30312861688	169.59860084878
31	75552	2378.87511520125	540.56454144604
31	81056	2555.59835467595	956.74092365986
31	86117	2729.0188482933	597.15567059923
31	91771	2907.76646789591	440.50718064824
31	96780	3081.68105731014	656.9394301037
31	103793	3294.45730296187	77.474624363095
31	110877	3527.81302153153	113.39343158933
32	8412	214.7322515606	241.97552872588
32	12836	387.88996586107	1041.7697896435
32	18242	561.38368349224	1009.6227548926
32	24001	738.75790136241	13.419221906536
32	32084	988.49093655389	129.06878847628
32	37769	1175.91971323337	1494.4140611687
32	43363	1353.17313640738	64.86598747338
32	48712	1529.27745313139	114.97836562233
32	56832	1776.26540341028	1754.2928564379
32	62381	1955.64298497841	339.46350435049
32	68364	2143.45652113621	0.84704830827554
32	74370	2337.52950328358	1549.0447803034
32	79300	2509.10302977145	137.35345030132
32	85453	2708.77246324897	597.79356237322
32	91826	2908.852871573	552.94470979942
32	97799	3101.80213184528	102.62082148656
32	103472	3284.62093722614	259.86765860705
32	108368	3459.44869492379	25.469768846116
33	8524	216.70710525612	424.35201111112
33	16944	481.36520399363	1249.9985337244
33	22836	669.07112469677	353.54088597582
33	28097	853.98664579971	89.258120913397
33	33563	1034.72166573183	169.00283950332
33	39163	1225.72488767347	300.07530890814
33	45457	1408.5321744009	451.8319147473
33	52870	1641.46710137893	157.94542531891
33	58753	1827.60310524352	403.73712258691
33	64311	2007.53882660262	230.21180071715
33	70264	2204.88142435314	16.578606146083
33	75816	2385.91983429202	170.48355541594
33	81362	2561.65727957184	2.2877277021047
33	86602	2734.49047922473	57.32752705217
33	92009	2911.30147969242	331.08464597638
33	97229	3086.02517283388	668.01628942613
33	102528	3260.6432079769	185.90539708429
33	108200	3456.18083510162	627.35666987675
34	8578	216.79290705884	7.3367325820003
34	17319	497.3860726063	384.3070205706
34	23256	678.0047414723	264.45614597982
34	28043	853.18150846436	448.23557965079
34	34529	1068.96209710353	40.257971200909
34	40770	1265.98581901184	979.5346435454
34	46873	1446.02043013972	861.15083848844
34	52420	1624.64670422151	411.77763696823
34	57994	1807.93700088252	541.9133124331
34	64418	2012.59771924744	506.59091472591
34	69840	2188.27766896674	97.895182678311
34	76054	2391.21874195256	1414.2102743978
34	81597	2566.45295331714	257.88615756195
34	87924	2773.94925625801	1308.1110352684
34	94733	2994.03687884069	101.4892173606
34	100640	3197.49568091229	278.35397000169
34	106690	3388.48133156463	1279.029330759
34	112499	3598.82653780228	120.42321354634
35	8631	217.11273820016	331.0172714308
35	13734	411.99515858018	1003.5621004152
35	19077	591.4895541998	203.01930596174
35	25459	774.80563590964	527.74271701078
35	30053	947.61318634716	2544.5469020216
35	37181	1155.70654436522	188.36841133968
35	43063	1346.64797234159	1135.2282695889
35	49315	1551.1632398096	284.35027518312
35	54985	1731.98548694862	517.52771495569
35	60806	1912.85119453037	25.48248951814
35	66325	2085.53960840925	278.59465338299
35	72092	2268.48004862181	684.09303478673
35	77855	2456.15675126793	781.38015073193
35	83557	2629.66533481302	934.91338657025
35	89042	2811.89362377495	632.89197005625
35	94487	2988.36686094339	733.48877700394
35	100454	3191.89406946633	499.18527912674
35	106508	3384.40861308111	247.92381191584
35	111684	3557.82169598336	388.72488345554
36	8686	217.1964127644	91.427953633965
36	14105	420.04631675236	65.042592825286
36	19704	596.2735621318	227.20125974551
36	25752	778.56510346949	858.23388327197
36	31254	966.50047470499	446.72414318579
36	36345	1139.19690605199	1332.8731019151
36	42467	1330.28540343164	1215.3710990558
36	47954	1517.70363571886	789.56001129096
36	53915	1696.73327498023	310.13249149243
36	60456	1902.37038677887	948.69718347692
36	65979	2076.15187801373	749.02689558125
36	71232	2248.02766562974	977.52515344227
36	76800	2422.92707157524	629.36468840149
36	82645	2604.00891275689	965.42064310981
36	88162	2785.04201665448	184.75270564825
36	93822	2967.49481674474	63.304406010081
36	99164	3150.36989757333	424.98492640728
36	104707	3326.51098811473	395.13629398002
36	110293	3518.59077655195	886.88401224562
37	8741	217.63494273922	32.681693204399
37	13924	417.53870717591	294.91423515039
37	19463	593.45123401984	73.116712052278
37	25208	770.86696506111	3343.5555638403
37	30849	957.19539163371	1083.0518182632
37	37235	1156.56226252001	265.13142185774
37	42287	1328.1736036315	20.33984305803
37	48293	1524.69951696857	330.78588236528
37	54092	1698.70970693416	182.21418565293
37	59706	1872.39207606362	574.40410108164
37	65442	2049.10032788162	834.72777953502
37	70756	2224.52103874735	51.321639491585
37	76620	2420.14543468043	486.1174035093
37	83501	2629.39800965635	126.76971502584
37	88908	2808.89268227058	539.45976204637
37	94068	2981.05484866498	2997.6433328881
37	99842	3171.22833810288	563.38975981719
37	105271	3345.82130957071	993.33911490916
37	110240	3518.09693190669	1007.2526249011
38	8796	218.27319177883	107.30550632226
38	15020	433.06384109707	2061.9664137471
38	20356	607.21241298504	32.276967357426
38	26111	793.38553679749	381.53878835306
38	31445	972.2571716351	984.03161160678
38	37644	1173.49768493369	101.54740088104
38	43809	1360.98137829667	504.54944882069
38	48960	1542.7512472055	173.89892210939
38	54636	1720.55726688642	576.48295423368
38	60568	1906.20550701369	404.18832998087
38	66219	2084.4926997675	1967.7235156289
38	72340	2276.33429566983	554.70840928557
38	78250	2465.75512988255	42.630413325044
38	84249	2667.63821332011	1333.6056488547
38	90137	2855.37223024952	461.12921525503
38	96676	3080.77915363008	867.30396685311
38	102343	3257.68447968948	81.407959669081
38	108790	3470.97708683897	52.460609218273
39	9185	220.25471556855	106.99926172239
39	16092	455.16492102358	615.13543138909
39	21357	633.50561632891	301.06797966803
39	26404	809.02161928846	923.8755214422
39	32976	1020.079007325	1498.0547879652
39	38162	1201.32535837782	586.28451611039
39	44207	1379.71153177276	608.54804240564
39	50407	1581.34064379234	230.54276638697
39	56727	1776.21833130766	116.24889846246
39	62846	1965.59153484783	34.660308799685
39	68122	2139.48349172625	56.689620678856
39	73509	2315.44485140624	869.81810519207
39	78926	2490.06149792107	365.69798275929
39	84695	2676.60805791075	549.88565053846
39	90779	2882.81098675089	57.799621568656
39	100948	3201.73524321198	572.46323782571
39	106215	3373.88083431817	581.76402470608
39	112105	3573.65512278319	477.5803399567
40	9345	224.56128518893	148.04529304559
40	16485	462.62009996853	380.87718742693
40	22705	659.36403460989	123.38851392525
40	28717	863.39811316666	1564.7085188226
40	34160	1061.10891362358	173.44978854247
40	39806	1234.8680843865	61.466340504971
40	46238	1431.01540984772	153.26855088745
40	51480	1606.93985212048	735.24504768514
40	58862	1838.76228782204	88.048698254086
40	64661	2025.03585629708	447.38237361038
40	71128	2246.83065300707	864.72402375029
40	77177	2430.10350482677	365.07531145724
40	82868	2617.26099672872	45.771011498819
40	88515	2794.41285912005	40.101988298595
40	95228	3025.11304132436	664.29005343656
40	101189	3204.78826081218	168.31654867376
40	106455	3383.29021162266	828.7568415072
41	9475	228.60025144702	837.03068552943
41	15074	433.3296951996	802.00865865793
41	21586	635.648777588	406.88559715036
41	26457	809.6602979146	284.45106976338
41	34019	1051.20282465663	311.55550075728
41	39750	1233.66553027839	163.04195156621
41	45594	1416.28869167308	315.01033671791
41	51534	1608.01886537518	2444.8080140299
41	57103	1780.88619909653	443.80059672919
41	63025	1967.35965101995	476.83772980109
41	69064	2162.34113080229	324.64392907152
41	74826	2351.66772188695	396.35608321844
41	81415	2562.4413014522	191.90058559983
41	86961	2741.34273995359	288.27425949501
41	92140	2913.04005975842	181.90172359667
41	97854	3102.76515897903	328.66387445306
41	103986	3303.08643938744	83.923900241473
41	109651	3496.3645680133	435.36152951902
42	9530	230.11234298808	282.18621172947
42	14051	419.30337117627	280.24855537362
42	19183	592.15716846745	820.94984033985
42	25405	774.34223806314	350.49756387188
42	32736	1012.33201903633	222.56867210986
42	38693	1208.37847997964	401.85543867317
42	44717	1387.78824534269	370.34841874867
42	50301	1580.02015071392	437.52767290483
42	57296	1788.15931416116	110.21528432504
42	62899	1966.18613759485	325.76269748526
42	68955	2156.88234720145	167.20796780911
42	74024	2331.17810799847	103.74391456591
42	79353	2510.13905223583	388.3608151317
42	84942	2697.78383526943	116.97679789085
42	90971	2888.69881964784	1213.1802364303
42	96383	3066.92848042022	369.13077044108
42	101996	3248.72184306224	198.67138704255
42	108666	3470.4448063513	158.43566570575
43	9710	232.04241936251	666.99488255341
43	14643	427.91116450255	257.37711731276
43	20010	600.61928409491	122.36576756176
43	25346	773.47862559703	1497.6056372074
43	31067	961.07692591742	1741.318530638
43	36690	1143.31664746145	77.212737385054
43	41844	1318.58806453703	188.29508318548
43	47598	1494.84304828897	347.04751331722
43	53413	1673.33284308995	207.96592931833
43	58993	1851.71749569596	3869.3954340765
43	65791	2057.60268683964	1007.5780145879
43	71075	2245.35324798031	542.75796808368
43	77744	2451.6635854687	245.74046188753
43	83055	2625.02741650057	74.17161220858
43	89900	2845.90579617669	237.93912213305
43	95525	3041.40425108132	260.11255724329
43	101335	3219.38658747156	58.547890160025
43	107424	3437.98784534157	291.73463068719
44	9850	237.91158620068	1427.1019380568
44	14858	430.4553852156	1546.3042836946
44	20710	613.93985354183	439.78119388315
44	26298	808.13576722789	416.6883402843
44	32499	1004.75866659936	232.47659265874
44	39371	1227.73842755158	188.32086276765
44	46423	1436.38977323124	47.718965045919
44	52228	1619.71462631548	740.10568277361
44	57746	1802.23140869445	125.58471401625
44	63958	1995.61719248192	1049.9826822331
44	69540	2178.5702437723	139.00151816994
44	75253	2365.63078374092	1359.0191015788
44	81002	2555.38054632007	197.05357523639
44	86328	2730.16441267058	1696.5916063269
44	91555	2903.26243530974	468.48311540686
44	96905	3082.94298796145	1938.4454129195
44	102219	3256.54329004004	439.71836795164
44	107859	3450.7928739086	68.303759618241
45	9957	243.02821073799	510.05286113284
45	14160	420.54327521816	679.2130570423
45	19409	593.34673061185	291.91469845315
45	25922	782.88422282196	293.20830741766
45	31498	973.29437814033	397.67691088244
45	36829	1145.84392547512	129.84749868915
45	41973	1321.52649983726	185.71724454708
45	48110	1521.45449584268	16.743150714473
45	55201	1743.71523505951	247.7569854585
45	61419	1933.30085113166	163.06148731338
45	68558	2149.2942897851	1471.9864637678
45	73657	2323.73699358354	38.755878438901
45	79780	2523.25365507672	747.5859333316
45	84995	2698.25083700255	381.30379704966
45	91234	2891.96603871934	10.455799525298
45	96488	3070.0166782275	562.68490995757
45	101707	3242.46254510659	2048.7644077297
45	107371	3437.03739984791	5408.0523130454
46	10083	245.73190673244	44.182861339622
46	17103	491.6154464044	21.931916217438
46	22963	672.82761918798	149.75256684647
46	27938	849.63277307854	75.685153192586
46	33733	1047.37577969067	1201.5889507341
46	39110	1225.11039083271	46.093454246577
46	45216	1403.9328486304	621.33204438017
46	50354	1580.18728784548	901.00598304508
46	55816	1759.65018629481	792.93554786251
46	62220	1953.08073062685	802.63494269596
46	67725	2132.28170219467	791.19197797016
46	73781	2325.49318055866	180.66673013173
46	79509	2511.86533636967	57.206441764892
46	84889	2696.70677244945	179.1691961177
46	90622	2880.5246460463	210.37573879256
46	96034	3055.83240427857	596.09246095084
46	101831	3245.08151350377	207.96206392015
46	107206	3430.79663057592	1.9835966787238
47	10192	248.0672453578	1773.5841685442
47	14450	423.53382352159	80.736720670854
47	23017	674.12182678933	1025.0206628833
47	28899	866.41722421652	874.09711010392
47	34583	1069.78124156239	146.52367988345
47	40635	1262.3324707913	440.6752446619
47	46644	1443.40723174395	45.818640687885
47	52171	1618.39010507625	187.22567976103
47	57514	1799.09179155401	293.56403223959
47	64714	2025.54101750157	78.322538502634
47	71637	2254.4062948612	91.962904983596
47	78576	2475.06430252913	801.02925546764
47	84406	2672.73969018895	1114.6930532697
47	90273	2863.23344264949	824.65424393578
47	96140	3056.44022616065	385.02069897921
47	103064	3278.89274876928	161.41676937675
47	108016	3452.71783409537	1623.7589787231
48	10331	259.9906987806	1234.1378701566
48	15856	453.11002483161	76.278032628564
48	21304	632.10442969773	885.80817203211
48	27713	843.05536734798	547.45166658691
48	33349	1030.63329308202	582.62063696157
48	38999	1215.43387234887	628.35083379787
48	45875	1418.20218627276	787.95395794356
48	51825	1612.69913491704	271.46554217952
48	57941	1807.76613061742	165.31369054754
48	63588	1985.6015820117	1144.674171901
48	69300	2166.67205357306	616.56277809848
48	74483	2341.51544568347	120.04374541984
48	79911	2531.98432126714	942.67425132741
48	85345	2704.24479731678	513.41772234505
48	92193	2913.1773123167	797.32103879371
48	97672	3099.74214100718	792.36761868157
48	104467	3313.53923735854	818.97860381835
48	109777	3499.11438744914	251.97841320168
49	10915	267.67632532363	187.95484715714
49	16196	455.7665849101	259.02451631422
49	22428	652.32133945754	454.2108742617
49	27348	832.91296556515	41.916461358575
49	32844	1016.01890383819	617.14608795498
49	38452	1205.30440195426	823.492710924
49	44261	1380.80748419048	90.274659535993
49	49976	1564.10038824156	2481.4731039712
49	58256	1810.63257080709	439.48998420183
49	64473	2013.85334123837	1386.4664251853
49	70589	2215.008544986	55.032030669604
49	76566	2419.51169384852	248.72832457716
49	82276	2596.13527972428	478.46626915434
49	88109	2784.76257807727	1105.5936110666
49	95333	3026.22857522866	4.4720623366867
49	100818	3199.77452989378	108.51886753365
49	109513	3488.4489079364	636.54210653262
50	11045	270.35382673663	187.47669097308
50	16776	474.91968248276	1197.4862433785
50	22534	653.62543237383	272.09465631052
50	27475	837.54212139024	1143.0968254801
50	33786	1047.94650015626	146.88849665774
50	40087	1236.93070924182	175.77554109649
50	45700	1417.0994416976	302.08209323291
50	50991	1589.72853063408	187.06214864247
50	56620	1774.50984192663	277.16680741891
50	62049	1948.78338000957	1772.2017231741
50	67610	2123.78084901453	2841.9454315087
50	72849	2303.34875033872	69.709990313863
50	78710	2482.75850584399	70.34610656148
50	84461	2673.87868042255	8.0173230479313
50	91662	2905.86141506525	150.65028773217
50	98779	3133.89332527499	1055.276444564
50	105618	3356.96002976431	64.501951792464
50	111065	3532.45258449259	106.73959673433
51	11286	276.3202095114	318.76285695697
51	15671	448.79229416336	1170.3074423929
51	21051	621.82905731375	324.07825875386
51	27149	817.50583636143	436.42404187386
51	32604	1007.95874554373	33.332834674771
51	39216	1226.20724815223	793.6674144391
51	44954	1398.34703514979	123.01585002143
51	51989	1615.28724343378	1297.1534980451
51	57461	1798.84217519296	540.43078522539
51	63344	1976.06419856949	990.64679278684
51	68764	2151.64642247526	27.838177424132
51	74648	2349.24201166417	1100.8923672956
51	80339	2541.29661031615	415.10780890632
51	86061	2727.62019760904	41.483056555792
51	92411	2914.79343221727	55.66755208028
51	97434	3093.10620768493	1875.0365696891
51	102887	3276.19684553506	1125.461459337
51	108560	3468.88759602755	745.01588976539
52	11663	290.62501411888	847.34228568107
52	17156	491.74411808564	1503.9215652481
52	23312	679.25726510806	606.1025065603
52	28359	856.85791983852	328.0299662394
52	35007	1082.38805132732	315.99890576267
52	40988	1271.34386591351	144.70909140006
52	46697	1443.90039902107	759.67976863937
52	53033	1647.06521791213	1732.2531725168
52	59046	1853.02869740598	650.11383392648
52	65038	2040.0320192475	95.550723827515
52	71412	2249.71088692717	418.43463645116
52	77417	2436.29902307963	421.19699539578
52	83002	2623.81313731414	885.92040632435
52	88674	2800.43866305517	3.5130099751983
52	94015	2979.63063593275	95.802716844719
52	100218	3186.57891435617	89.621436403532
52	105726	3359.72901002975	166.7900375942
52	111964	3562.78366214661	19.319719152379
53	13008	389.14256365318	1.71213056742
53	13187	391.87926798368	1.71213003826
53	20354	606.69885654557	1.71213561764
53	23709	732.8091869659	1.71213228432
53	27444	834.62509597431	1.71213040916
53	29616	906.97408729365	1.71212978032
53	32716	1009.67087563982	1.71213009609
53	33317	1026.72002877254	1.71213021296
53	33882	1048.95670982372	1.7121302497
53	35157	1082.80151178269	1.71212978032
53	37058	1148.48885408172	1.71213060812
53	42452	1329.88573373284	1.71213010134
53	46794	1445.11936149191	1.71212974796
53	48221	1523.16662612886	1.71213028618
53	48956	1542.34114120449	1.71213060812
53	50292	1571.16531437549	1.71213169811
53	51313	1594.6803458172	1.71213021296
53	60181	1885.06685001032	1.71213056742
53	60909	1914.56332493232	1.71213040195
53	61152	1922.75225724148	1.71213006189
53	62589	1958.5161577044	1.71213021296
53	63001	1967.30366450557	1.71212965774
53	64217	1999.55061374809	1.7121302497
53	67547	2121.37864816073	1.7121306906
53	68929	2153.35855257135	1.71213009609
53	73767	2325.44912386972	1.71213028618
53	78402	2467.46726027014	1.71213038759
53	81214	2556.82187337043	1.71213003826
53	82971	2618.97312641702	1.7121296883
53	85870	2718.72428488885	1.7121306906
53	87910	2769.50706365345	1.71213260637
53	88665	2796.12499131235	1.7121321923
53	91399	2893.67816900552	1.71213028618
53	98622	3130.99853139331	1.7121302497
53	101563	3226.05600410196	1.71212978032
53	105935	3362.59682490954	1.71213011687
53	111301	3537.24965404398	1.71213212822
53	112100	3567.67722286707	4.89356072046
54	13008	389.14256365318	1.71213056742
54	13187	391.87926798368	1.71213003826
54	20354	606.69885654557	1.71213561764
54	23709	732.8091869659	1.71213228432
54	27444	834.62509597431	1.71213040916
54	29616	906.97408729365	1.71212978032
54	32716	1009.67087563982	1.71213009609
54	33317	1026.72002877254	1.71213021296
54	33882	1048.95670982372	1.7121302497
54	35157	1082.80151178269	1.71212978032
54	37058	1148.48885408172	1.71213060812
54	42452	1329.88573373284	1.71213010134
54	46794	1445.11936149191	1.71212974796
54	48221	1523.16662612886	1.71213028618
54	48956	1542.34114120449	1.71213060812
54	50292	1571.16531437549	1.71213169811
54	51313	1594.6803458172	1.71213021296
54	60181	1885.06685001032	1.71213056742
54	60909	1914.56332493232	1.71213040195
54	61152	1922.75225724148	1.71213006189
54	62589	1958.5161577044	1.71213021296
54	63001	1967.30366450557	1.71212965774
54	64217	1999.55061374809	1.7121302497
54	67547	2121.37864816073	1.7121306906
54	68929	2153.35855257135	1.71213009609
54	73767	2325.44912386972	1.71213028618
54	78402	2467.46726027014	1.71213038759
54	81214	2556.82187337043	1.71213003826
54	82971	2618.97312641702	1.7121296883
54	85870	2718.72428488885	1.7121306906
54	87910	2769.50706365345	1.71213260637
54	88665	2796.12499131235	1.7121321923
54	91399	2893.67816900552	1.71213028618
54	98622	3130.99853139331	1.7121302497
54	101563	3226.05600410196	1.71212978032
54	105935	3362.59682490954	1.71213011687
54	111301	3537.24965404398	1.71213212822
54	112100	3567.67722286707	4.89356072046

