version 3
run N50-26-20260518-02:26:54-159863
attr configname N50
attr datetime 20260518-02:26:54
attr datetimef 20260518-022654
attr experiment N50
attr inifile omnetpp.ini
attr iterationvars "$0=\"avg\""
attr iterationvarsd avg
attr iterationvarsf avg-
attr measurement "$0=\"avg\""
attr network test2.LoRaNetworkTest
attr processid 159863
attr repetition 26
attr replication #26
attr resultdir results
attr runnumber 26
attr seedset 26
config extends General
config **.numPatients 50
config network test2.LoRaNetworkTest
config sim-time-limit 1h
config warmup-period 60s
config simtime-resolution -11
config repeat 30
config rng-class cMersenneTwister
config record-eventlog false
config **.numPatients 20
config **.HospitalServer.app[0].queueLength:vector.vector-recording true
config **.HospitalServer.app[0].urgentWaitTime:vector.vector-recording true
config **.HospitalServer.app[0].normalWaitTime:vector.vector-recording true
config **.HospitalServer.app[0].urgentEndToEndDelay:vector.vector-recording true
config **.HospitalServer.app[0].normalEndToEndDelay:vector.vector-recording true
config **.loRaNodes[*].app[0].emergencyVariate:vector.vector-recording true
config **.vector-recording false
config **.loRaNodes[0].**.initialX "300m + uniform(-10m, 10m)"
config **.loRaNodes[0].**.initialY "250m + uniform(-8m, 8m)"
config **.loRaNodes[1].**.initialX "450m + uniform(-10m, 10m)"
config **.loRaNodes[1].**.initialY "250m + uniform(-8m, 8m)"
config **.loRaNodes[2].**.initialX "600m + uniform(-10m, 10m)"
config **.loRaNodes[2].**.initialY "250m + uniform(-8m, 8m)"
config **.loRaNodes[3].**.initialX "750m + uniform(-10m, 10m)"
config **.loRaNodes[3].**.initialY "250m + uniform(-8m, 8m)"
config **.loRaNodes[4].**.initialX "900m + uniform(-10m, 10m)"
config **.loRaNodes[4].**.initialY "250m + uniform(-8m, 8m)"
config **.loRaNodes[5].**.initialX "1050m + uniform(-10m, 10m)"
config **.loRaNodes[5].**.initialY "250m + uniform(-8m, 8m)"
config **.loRaNodes[6].**.initialX "1200m + uniform(-10m, 10m)"
config **.loRaNodes[6].**.initialY "250m + uniform(-8m, 8m)"
config **.loRaNodes[7].**.initialX "1350m + uniform(-10m, 10m)"
config **.loRaNodes[7].**.initialY "250m + uniform(-8m, 8m)"
config **.loRaNodes[8].**.initialX "1500m + uniform(-10m, 10m)"
config **.loRaNodes[8].**.initialY "250m + uniform(-8m, 8m)"
config **.loRaNodes[9].**.initialX "1650m + uniform(-10m, 10m)"
config **.loRaNodes[9].**.initialY "250m + uniform(-8m, 8m)"
config **.loRaNodes[10].**.initialX "300m + uniform(-10m, 10m)"
config **.loRaNodes[10].**.initialY "370m + uniform(-8m, 8m)"
config **.loRaNodes[11].**.initialX "450m + uniform(-10m, 10m)"
config **.loRaNodes[11].**.initialY "370m + uniform(-8m, 8m)"
config **.loRaNodes[12].**.initialX "600m + uniform(-10m, 10m)"
config **.loRaNodes[12].**.initialY "370m + uniform(-8m, 8m)"
config **.loRaNodes[13].**.initialX "750m + uniform(-10m, 10m)"
config **.loRaNodes[13].**.initialY "370m + uniform(-8m, 8m)"
config **.loRaNodes[14].**.initialX "900m + uniform(-10m, 10m)"
config **.loRaNodes[14].**.initialY "370m + uniform(-8m, 8m)"
config **.loRaNodes[15].**.initialX "1050m + uniform(-10m, 10m)"
config **.loRaNodes[15].**.initialY "370m + uniform(-8m, 8m)"
config **.loRaNodes[16].**.initialX "1200m + uniform(-10m, 10m)"
config **.loRaNodes[16].**.initialY "370m + uniform(-8m, 8m)"
config **.loRaNodes[17].**.initialX "1350m + uniform(-10m, 10m)"
config **.loRaNodes[17].**.initialY "370m + uniform(-8m, 8m)"
config **.loRaNodes[18].**.initialX "1500m + uniform(-10m, 10m)"
config **.loRaNodes[18].**.initialY "370m + uniform(-8m, 8m)"
config **.loRaNodes[19].**.initialX "1650m + uniform(-10m, 10m)"
config **.loRaNodes[19].**.initialY "370m + uniform(-8m, 8m)"
config **.loRaNodes[20].**.initialX "300m + uniform(-10m, 10m)"
config **.loRaNodes[20].**.initialY "490m + uniform(-8m, 8m)"
config **.loRaNodes[21].**.initialX "450m + uniform(-10m, 10m)"
config **.loRaNodes[21].**.initialY "490m + uniform(-8m, 8m)"
config **.loRaNodes[22].**.initialX "600m + uniform(-10m, 10m)"
config **.loRaNodes[22].**.initialY "490m + uniform(-8m, 8m)"
config **.loRaNodes[23].**.initialX "750m + uniform(-10m, 10m)"
config **.loRaNodes[23].**.initialY "490m + uniform(-8m, 8m)"
config **.loRaNodes[24].**.initialX "900m + uniform(-10m, 10m)"
config **.loRaNodes[24].**.initialY "490m + uniform(-8m, 8m)"
config **.loRaNodes[25].**.initialX "1050m + uniform(-10m, 10m)"
config **.loRaNodes[25].**.initialY "490m + uniform(-8m, 8m)"
config **.loRaNodes[26].**.initialX "1200m + uniform(-10m, 10m)"
config **.loRaNodes[26].**.initialY "490m + uniform(-8m, 8m)"
config **.loRaNodes[27].**.initialX "1350m + uniform(-10m, 10m)"
config **.loRaNodes[27].**.initialY "490m + uniform(-8m, 8m)"
config **.loRaNodes[28].**.initialX "1500m + uniform(-10m, 10m)"
config **.loRaNodes[28].**.initialY "490m + uniform(-8m, 8m)"
config **.loRaNodes[29].**.initialX "1650m + uniform(-10m, 10m)"
config **.loRaNodes[29].**.initialY "490m + uniform(-8m, 8m)"
config **.loRaNodes[30].**.initialX "300m + uniform(-10m, 10m)"
config **.loRaNodes[30].**.initialY "610m + uniform(-8m, 8m)"
config **.loRaNodes[31].**.initialX "450m + uniform(-10m, 10m)"
config **.loRaNodes[31].**.initialY "610m + uniform(-8m, 8m)"
config **.loRaNodes[32].**.initialX "600m + uniform(-10m, 10m)"
config **.loRaNodes[32].**.initialY "610m + uniform(-8m, 8m)"
config **.loRaNodes[33].**.initialX "750m + uniform(-10m, 10m)"
config **.loRaNodes[33].**.initialY "610m + uniform(-8m, 8m)"
config **.loRaNodes[34].**.initialX "900m + uniform(-10m, 10m)"
config **.loRaNodes[34].**.initialY "610m + uniform(-8m, 8m)"
config **.loRaNodes[35].**.initialX "1050m + uniform(-10m, 10m)"
config **.loRaNodes[35].**.initialY "610m + uniform(-8m, 8m)"
config **.loRaNodes[36].**.initialX "1200m + uniform(-10m, 10m)"
config **.loRaNodes[36].**.initialY "610m + uniform(-8m, 8m)"
config **.loRaNodes[37].**.initialX "1350m + uniform(-10m, 10m)"
config **.loRaNodes[37].**.initialY "610m + uniform(-8m, 8m)"
config **.loRaNodes[38].**.initialX "1500m + uniform(-10m, 10m)"
config **.loRaNodes[38].**.initialY "610m + uniform(-8m, 8m)"
config **.loRaNodes[39].**.initialX "1650m + uniform(-10m, 10m)"
config **.loRaNodes[39].**.initialY "610m + uniform(-8m, 8m)"
config **.loRaNodes[40].**.initialX "300m + uniform(-10m, 10m)"
config **.loRaNodes[40].**.initialY "730m + uniform(-8m, 8m)"
config **.loRaNodes[41].**.initialX "450m + uniform(-10m, 10m)"
config **.loRaNodes[41].**.initialY "730m + uniform(-8m, 8m)"
config **.loRaNodes[42].**.initialX "600m + uniform(-10m, 10m)"
config **.loRaNodes[42].**.initialY "730m + uniform(-8m, 8m)"
config **.loRaNodes[43].**.initialX "750m + uniform(-10m, 10m)"
config **.loRaNodes[43].**.initialY "730m + uniform(-8m, 8m)"
config **.loRaNodes[44].**.initialX "900m + uniform(-10m, 10m)"
config **.loRaNodes[44].**.initialY "730m + uniform(-8m, 8m)"
config **.loRaNodes[45].**.initialX "1050m + uniform(-10m, 10m)"
config **.loRaNodes[45].**.initialY "730m + uniform(-8m, 8m)"
config **.loRaNodes[46].**.initialX "1200m + uniform(-10m, 10m)"
config **.loRaNodes[46].**.initialY "730m + uniform(-8m, 8m)"
config **.loRaNodes[47].**.initialX "1350m + uniform(-10m, 10m)"
config **.loRaNodes[47].**.initialY "730m + uniform(-8m, 8m)"
config **.loRaNodes[48].**.initialX "1500m + uniform(-10m, 10m)"
config **.loRaNodes[48].**.initialY "730m + uniform(-8m, 8m)"
config **.loRaNodes[49].**.initialX "1650m + uniform(-10m, 10m)"
config **.loRaNodes[49].**.initialY "730m + uniform(-8m, 8m)"
config **.loRaNodes[50].**.initialX "300m + uniform(-10m, 10m)"
config **.loRaNodes[50].**.initialY "850m + uniform(-8m, 8m)"
config **.loRaNodes[51].**.initialX "450m + uniform(-10m, 10m)"
config **.loRaNodes[51].**.initialY "850m + uniform(-8m, 8m)"
config **.loRaNodes[52].**.initialX "600m + uniform(-10m, 10m)"
config **.loRaNodes[52].**.initialY "850m + uniform(-8m, 8m)"
config **.loRaNodes[53].**.initialX "750m + uniform(-10m, 10m)"
config **.loRaNodes[53].**.initialY "850m + uniform(-8m, 8m)"
config **.loRaNodes[54].**.initialX "900m + uniform(-10m, 10m)"
config **.loRaNodes[54].**.initialY "850m + uniform(-8m, 8m)"
config **.loRaNodes[55].**.initialX "1050m + uniform(-10m, 10m)"
config **.loRaNodes[55].**.initialY "850m + uniform(-8m, 8m)"
config **.loRaNodes[56].**.initialX "1200m + uniform(-10m, 10m)"
config **.loRaNodes[56].**.initialY "850m + uniform(-8m, 8m)"
config **.loRaNodes[57].**.initialX "1350m + uniform(-10m, 10m)"
config **.loRaNodes[57].**.initialY "850m + uniform(-8m, 8m)"
config **.loRaNodes[58].**.initialX "1500m + uniform(-10m, 10m)"
config **.loRaNodes[58].**.initialY "850m + uniform(-8m, 8m)"
config **.loRaNodes[59].**.initialX "1650m + uniform(-10m, 10m)"
config **.loRaNodes[59].**.initialY "850m + uniform(-8m, 8m)"
config **.loRaNodes[60].**.initialX "300m + uniform(-10m, 10m)"
config **.loRaNodes[60].**.initialY "970m + uniform(-8m, 8m)"
config **.loRaNodes[61].**.initialX "450m + uniform(-10m, 10m)"
config **.loRaNodes[61].**.initialY "970m + uniform(-8m, 8m)"
config **.loRaNodes[62].**.initialX "600m + uniform(-10m, 10m)"
config **.loRaNodes[62].**.initialY "970m + uniform(-8m, 8m)"
config **.loRaNodes[63].**.initialX "750m + uniform(-10m, 10m)"
config **.loRaNodes[63].**.initialY "970m + uniform(-8m, 8m)"
config **.loRaNodes[64].**.initialX "900m + uniform(-10m, 10m)"
config **.loRaNodes[64].**.initialY "970m + uniform(-8m, 8m)"
config **.loRaNodes[65].**.initialX "1050m + uniform(-10m, 10m)"
config **.loRaNodes[65].**.initialY "970m + uniform(-8m, 8m)"
config **.loRaNodes[66].**.initialX "1200m + uniform(-10m, 10m)"
config **.loRaNodes[66].**.initialY "970m + uniform(-8m, 8m)"
config **.loRaNodes[67].**.initialX "1350m + uniform(-10m, 10m)"
config **.loRaNodes[67].**.initialY "970m + uniform(-8m, 8m)"
config **.loRaNodes[68].**.initialX "1500m + uniform(-10m, 10m)"
config **.loRaNodes[68].**.initialY "970m + uniform(-8m, 8m)"
config **.loRaNodes[69].**.initialX "1650m + uniform(-10m, 10m)"
config **.loRaNodes[69].**.initialY "970m + uniform(-8m, 8m)"
config **.loRaNodes[70].**.initialX "300m + uniform(-10m, 10m)"
config **.loRaNodes[70].**.initialY "1090m + uniform(-8m, 8m)"
config **.loRaNodes[71].**.initialX "450m + uniform(-10m, 10m)"
config **.loRaNodes[71].**.initialY "1090m + uniform(-8m, 8m)"
config **.loRaNodes[72].**.initialX "600m + uniform(-10m, 10m)"
config **.loRaNodes[72].**.initialY "1090m + uniform(-8m, 8m)"
config **.loRaNodes[73].**.initialX "750m + uniform(-10m, 10m)"
config **.loRaNodes[73].**.initialY "1090m + uniform(-8m, 8m)"
config **.loRaNodes[74].**.initialX "900m + uniform(-10m, 10m)"
config **.loRaNodes[74].**.initialY "1090m + uniform(-8m, 8m)"
config **.HospitalServer.numApps 1
config **.HospitalServer.app[0].typename HospitalServerApp
config **.HospitalServer.app[0].destPort 2000
config **.HospitalServer.app[0].localPort 1000
config **.HospitalServer.app[0].adrMethod "\"avg\""
config **.HospitalServer.**.evaluateADRinServer true
config **.HospitalServer.app[0].queueSize 50
config **.HospitalServer.app[0].expo_rate_lambda 0.83
config **.loRaGateway.numUdpApps 1
config **.loRaGateway.packetForwarder.localPort 2000
config **.loRaGateway.packetForwarder.destPort 1000
config **.loRaGateway.packetForwarder.destAddresses "\"HospitalServer\""
config **.loRaGateway.**.initFromDisplayString false
config **.loRaGateway.**.initialX 544.00m
config **.loRaGateway.**.initialY 544.00m
config **.loRaNodes[*].numApps 1
config **.loRaNodes[*].app[0].typename PatientSensorApp
config **.loRaNodes[*].app[0].expo_rate_lambda 0.00175
config **.loRaNodes[*].app[0].emergencyThreshold 50
config **.loRaNodes[*].**.timeToFirstPacket exponential(24s)
config **.loRaNodes[*].**.timeToNextPacket exponential(24s)
config **.loRaNodes[*].**.numberOfPacketsToSend 0
config **.loRaNodes[*].**initialLoRaSF 12
config **.loRaNodes[*].**initialLoRaTP 14dBm
config **.loRaNodes[*].**initialLoRaBW "125 kHz"
config **.loRaNodes[*].**initialLoRaCR 4
config **.loRaNodes[*].**.initFromDisplayString false
config **.loRaNodes[*].**.evaluateADRinNode true
config **.loRaNodes[*].LoRaNic.radio.energyConsumer.typename LoRaEnergyConsumer
config **.loRaNodes[*].**.energySourceModule "\"^.IdealEpEnergyStorage\""
config **.loRaNodes[*].LoRaNic.radio.energyConsumer.configFile "xmldoc(\"energyConsumptionParam.xml\")"
config **.maxTransmissionDuration 4s
config **.energyDetection -110dBm
config **.radio.radioMediumModule "\"LoRaMedium\""
config **.minInterferenceTime 0s
config **.constraintAreaMinX 0m
config **.constraintAreaMinY 0m
config **.constraintAreaMinZ 0m
config **.constraintAreaMaxZ 0m
config **.constraintAreaMaxX 3000.0m
config **.constraintAreaMaxY 3000.0m

vector 0 LoRaNetworkTest.HospitalServer.app[0] queueLength:vector ETV
attr recordingmode vector
attr title "Total queue length"
vector 1 LoRaNetworkTest.HospitalServer.app[0] normalWaitTime:vector ETV
attr recordingmode vector
attr title "Normal wait time (s)"
vector 2 LoRaNetworkTest.HospitalServer.app[0] normalEndToEndDelay:vector ETV
attr recordingmode vector
attr title "Normal end-to-end delay (s)"
vector 3 LoRaNetworkTest.loRaNodes[10].app[0] emergencyVariate:vector ETV
attr recordingmode vector
attr title "Exponential variate samples"
vector 4 LoRaNetworkTest.loRaNodes[31].app[0] emergencyVariate:vector ETV
attr recordingmode vector
attr title "Exponential variate samples"
vector 5 LoRaNetworkTest.loRaNodes[8].app[0] emergencyVariate:vector ETV
attr recordingmode vector
attr title "Exponential variate samples"
vector 6 LoRaNetworkTest.loRaNodes[1].app[0] emergencyVariate:vector ETV
attr recordingmode vector
attr title "Exponential variate samples"
vector 7 LoRaNetworkTest.loRaNodes[45].app[0] emergencyVariate:vector ETV
attr recordingmode vector
attr title "Exponential variate samples"
vector 8 LoRaNetworkTest.loRaNodes[14].app[0] emergencyVariate:vector ETV
attr recordingmode vector
attr title "Exponential variate samples"
vector 9 LoRaNetworkTest.loRaNodes[28].app[0] emergencyVariate:vector ETV
attr recordingmode vector
attr title "Exponential variate samples"
vector 10 LoRaNetworkTest.HospitalServer.app[0] urgentWaitTime:vector ETV
attr recordingmode vector
attr title "Urgent wait time (s)"
vector 11 LoRaNetworkTest.HospitalServer.app[0] urgentEndToEndDelay:vector ETV
attr recordingmode vector
attr title "Urgent end-to-end delay (s)"
vector 12 LoRaNetworkTest.loRaNodes[12].app[0] emergencyVariate:vector ETV
attr recordingmode vector
attr title "Exponential variate samples"
vector 13 LoRaNetworkTest.loRaNodes[34].app[0] emergencyVariate:vector ETV
attr recordingmode vector
attr title "Exponential variate samples"
vector 14 LoRaNetworkTest.loRaNodes[33].app[0] emergencyVariate:vector ETV
attr recordingmode vector
attr title "Exponential variate samples"
vector 15 LoRaNetworkTest.loRaNodes[36].app[0] emergencyVariate:vector ETV
attr recordingmode vector
attr title "Exponential variate samples"
vector 16 LoRaNetworkTest.loRaNodes[41].app[0] emergencyVariate:vector ETV
attr recordingmode vector
attr title "Exponential variate samples"
vector 17 LoRaNetworkTest.loRaNodes[22].app[0] emergencyVariate:vector ETV
attr recordingmode vector
attr title "Exponential variate samples"
vector 18 LoRaNetworkTest.loRaNodes[40].app[0] emergencyVariate:vector ETV
attr recordingmode vector
attr title "Exponential variate samples"
vector 19 LoRaNetworkTest.loRaNodes[6].app[0] emergencyVariate:vector ETV
attr recordingmode vector
attr title "Exponential variate samples"
vector 20 LoRaNetworkTest.loRaNodes[11].app[0] emergencyVariate:vector ETV
attr recordingmode vector
attr title "Exponential variate samples"
vector 21 LoRaNetworkTest.loRaNodes[9].app[0] emergencyVariate:vector ETV
attr recordingmode vector
attr title "Exponential variate samples"
vector 22 LoRaNetworkTest.loRaNodes[49].app[0] emergencyVariate:vector ETV
attr recordingmode vector
attr title "Exponential variate samples"
vector 23 LoRaNetworkTest.loRaNodes[32].app[0] emergencyVariate:vector ETV
attr recordingmode vector
attr title "Exponential variate samples"
vector 24 LoRaNetworkTest.loRaNodes[30].app[0] emergencyVariate:vector ETV
attr recordingmode vector
attr title "Exponential variate samples"
vector 25 LoRaNetworkTest.loRaNodes[7].app[0] emergencyVariate:vector ETV
attr recordingmode vector
attr title "Exponential variate samples"
vector 26 LoRaNetworkTest.loRaNodes[13].app[0] emergencyVariate:vector ETV
attr recordingmode vector
attr title "Exponential variate samples"
vector 27 LoRaNetworkTest.loRaNodes[29].app[0] emergencyVariate:vector ETV
attr recordingmode vector
attr title "Exponential variate samples"
vector 28 LoRaNetworkTest.loRaNodes[23].app[0] emergencyVariate:vector ETV
attr recordingmode vector
attr title "Exponential variate samples"
vector 29 LoRaNetworkTest.loRaNodes[26].app[0] emergencyVariate:vector ETV
attr recordingmode vector
attr title "Exponential variate samples"
vector 30 LoRaNetworkTest.loRaNodes[44].app[0] emergencyVariate:vector ETV
attr recordingmode vector
attr title "Exponential variate samples"
vector 31 LoRaNetworkTest.loRaNodes[47].app[0] emergencyVariate:vector ETV
attr recordingmode vector
attr title "Exponential variate samples"
vector 32 LoRaNetworkTest.loRaNodes[48].app[0] emergencyVariate:vector ETV
attr recordingmode vector
attr title "Exponential variate samples"
vector 33 LoRaNetworkTest.loRaNodes[19].app[0] emergencyVariate:vector ETV
attr recordingmode vector
attr title "Exponential variate samples"
vector 34 LoRaNetworkTest.loRaNodes[21].app[0] emergencyVariate:vector ETV
attr recordingmode vector
attr title "Exponential variate samples"
vector 35 LoRaNetworkTest.loRaNodes[2].app[0] emergencyVariate:vector ETV
attr recordingmode vector
attr title "Exponential variate samples"
vector 36 LoRaNetworkTest.loRaNodes[35].app[0] emergencyVariate:vector ETV
attr recordingmode vector
attr title "Exponential variate samples"
vector 37 LoRaNetworkTest.loRaNodes[20].app[0] emergencyVariate:vector ETV
attr recordingmode vector
attr title "Exponential variate samples"
vector 38 LoRaNetworkTest.loRaNodes[46].app[0] emergencyVariate:vector ETV
attr recordingmode vector
attr title "Exponential variate samples"
vector 39 LoRaNetworkTest.loRaNodes[16].app[0] emergencyVariate:vector ETV
attr recordingmode vector
attr title "Exponential variate samples"
vector 40 LoRaNetworkTest.loRaNodes[18].app[0] emergencyVariate:vector ETV
attr recordingmode vector
attr title "Exponential variate samples"
vector 41 LoRaNetworkTest.loRaNodes[17].app[0] emergencyVariate:vector ETV
attr recordingmode vector
attr title "Exponential variate samples"
vector 42 LoRaNetworkTest.loRaNodes[3].app[0] emergencyVariate:vector ETV
attr recordingmode vector
attr title "Exponential variate samples"
vector 43 LoRaNetworkTest.loRaNodes[15].app[0] emergencyVariate:vector ETV
attr recordingmode vector
attr title "Exponential variate samples"
vector 44 LoRaNetworkTest.loRaNodes[42].app[0] emergencyVariate:vector ETV
attr recordingmode vector
attr title "Exponential variate samples"
vector 45 LoRaNetworkTest.loRaNodes[24].app[0] emergencyVariate:vector ETV
attr recordingmode vector
attr title "Exponential variate samples"
vector 46 LoRaNetworkTest.loRaNodes[4].app[0] emergencyVariate:vector ETV
attr recordingmode vector
attr title "Exponential variate samples"
vector 47 LoRaNetworkTest.loRaNodes[25].app[0] emergencyVariate:vector ETV
attr recordingmode vector
attr title "Exponential variate samples"
vector 48 LoRaNetworkTest.loRaNodes[5].app[0] emergencyVariate:vector ETV
attr recordingmode vector
attr title "Exponential variate samples"
vector 49 LoRaNetworkTest.loRaNodes[27].app[0] emergencyVariate:vector ETV
attr recordingmode vector
attr title "Exponential variate samples"
vector 50 LoRaNetworkTest.loRaNodes[0].app[0] emergencyVariate:vector ETV
attr recordingmode vector
attr title "Exponential variate samples"
vector 51 LoRaNetworkTest.loRaNodes[39].app[0] emergencyVariate:vector ETV
attr recordingmode vector
attr title "Exponential variate samples"
vector 52 LoRaNetworkTest.loRaNodes[37].app[0] emergencyVariate:vector ETV
attr recordingmode vector
attr title "Exponential variate samples"
vector 53 LoRaNetworkTest.loRaNodes[38].app[0] emergencyVariate:vector ETV
attr recordingmode vector
attr title "Exponential variate samples"
vector 54 LoRaNetworkTest.loRaNodes[43].app[0] emergencyVariate:vector ETV
attr recordingmode vector
attr title "Exponential variate samples"
0	5461	60.50089230052	1
0	5461	60.50089230052	0
0	5572	71.72266367282	1
0	5572	71.72266367282	0
0	5702	75.76360373273	1
0	5702	75.76360373273	0
0	6044	181.57375102885	1
0	6044	181.57375102885	0
0	6277	183.75002849873	1
0	6277	183.75002849873	0
0	6667	186.79523043039	1
0	6667	186.79523043039	0
0	7017	191.37892375849	1
0	7017	191.37892375849	0
0	7413	193.77082246849	1
0	7413	193.77082246849	0
0	7711	196.24248363911	1
0	7711	196.24248363911	0
0	7855	202.09342202322	1
0	7855	202.09342202322	0
0	8158	205.54590406602	1
0	8158	205.54590406602	0
0	8394	208.00159971515	1
0	8394	208.00159971515	0
0	8866	212.9948389125	1
0	8866	212.9948389125	0
0	9031	215.36473900251	1
0	9031	215.36473900251	0
0	9229	217.61471285222	1
0	9229	217.61471285222	0
0	9457	219.86918741406	1
0	9457	219.86918741406	0
0	9723	222.13620165273	1
0	9723	222.13620165273	0
0	10385	243.934640386	1
0	10385	243.934640386	0
0	10896	256.32045063736	1
0	10896	256.32045063736	0
0	11842	361.34188648123	1
0	11842	361.34188648123	0
0	12109	369.28868561361	1
0	12109	369.28868561361	0
0	12323	373.06922957214	1
0	12323	373.06922957214	0
0	12488	379.01895261635	1
0	12488	379.01895261635	0
0	12858	386.24441413425	1
0	12858	386.24441413425	0
0	13128	390.66673975807	1
0	13128	390.66673975807	0
0	13331	395.24669822962	1
0	13331	395.24669822962	0
0	13880	402.41463628246	1
0	13880	402.41463628246	0
0	14177	406.6998960441	1
0	14177	406.6998960441	0
0	14529	412.28978437957	1
0	14529	412.28978437957	0
0	14761	414.82987493612	1
0	14789	414.84972583158	0
0	14916	418.28185569166	1
0	14916	418.28185569166	0
0	15049	420.69429190934	1
0	15049	420.69429190934	0
0	15509	428.10400321791	1
0	15509	428.10400321791	0
0	15851	433.11266121705	1
0	15851	433.11266121705	0
0	16087	441.1418777531	1
0	16087	441.1418777531	0
0	16322	445.32166257857	1
0	16322	445.32166257857	0
0	16593	452.24976818314	1
0	16593	452.24976818314	0
0	16916	461.50339974215	1
0	16916	461.50339974215	0
0	17212	487.09031073239	1
0	17212	487.09031073239	0
0	17321	491.2561979396	1
0	17321	491.2561979396	0
0	17472	494.38656515088	1
0	17472	494.38656515088	0
0	17594	508.37458003323	1
0	17594	508.37458003323	0
0	17715	538.3491141453	1
0	17715	538.3491141453	0
0	17952	546.11444221074	1
0	17952	546.11444221074	0
0	18084	552.5499015608	1
0	18084	552.5499015608	0
0	18375	565.04413103412	1
0	18375	565.04413103412	0
0	18448	566.72879157875	1
0	18448	566.72879157875	0
0	18904	575.8112653382	1
0	18904	575.8112653382	0
0	19161	579.02130436913	1
0	19161	579.02130436913	0
0	19309	581.06176655531	1
0	19309	581.06176655531	0
0	19637	587.34295424031	1
0	19637	587.34295424031	0
0	19899	591.62856783663	1
0	19904	592.27134519954	0
0	20085	594.28347130171	1
0	20085	594.28347130171	0
0	20410	598.08990099614	1
0	20410	598.08990099614	0
0	20719	605.82040800963	1
0	20719	605.82040800963	0
0	20947	610.73217910175	1
0	20947	610.73217910175	0
0	21214	616.78277868918	1
0	21214	616.78277868918	0
0	21364	620.56358129402	1
0	21364	620.56358129402	0
0	21797	625.7426910364	1
0	21797	625.7426910364	0
0	22490	640.12061817989	1
0	22490	640.12061817989	0
0	22642	651.42489429596	1
0	22642	651.42489429596	0
0	22859	665.69835549015	1
0	22859	665.69835549015	0
0	23232	681.30722250244	1
0	23232	681.30722250244	0
0	23352	699.50127496753	1
0	23352	699.50127496753	0
0	23494	706.80312901195	1
0	23494	706.80312901195	0
0	23603	711.92652390377	1
0	23603	711.92652390377	0
0	23846	722.62553871704	1
0	23846	722.62553871704	0
0	24135	738.8310957495	1
0	24135	738.8310957495	0
0	24242	741.43237740036	1
0	24242	741.43237740036	0
0	24395	753.84732051742	1
0	24395	753.84732051742	0
0	24878	764.50403332328	1
0	24878	764.50403332328	0
0	25181	770.38610948937	1
0	25181	770.38610948937	0
0	25332	772.57345551998	1
0	25390	773.58585191492	0
0	25783	779.78526024143	1
0	25783	779.78526024143	0
0	26327	784.79133371933	1
0	26327	784.79133371933	0
0	26519	786.93935176009	1
0	26519	786.93935176009	0
0	26715	793.05921665122	1
0	26715	793.05921665122	0
0	26868	795.79115278833	1
0	26868	795.79115278833	0
0	26975	798.31512936052	1
0	26975	798.31512936052	0
0	27406	808.95766603586	1
0	27406	808.95766603586	0
0	27802	821.82634748227	1
0	27802	821.82634748227	0
0	27918	823.6355989283	1
0	27918	823.6355989283	0
0	28129	827.78685519333	1
0	28129	827.78685519333	0
0	28412	833.22135518524	1
0	28412	833.22135518524	0
0	28590	840.79811994081	1
0	28590	840.79811994081	0
0	28891	850.19300638781	1
0	28891	850.19300638781	0
0	29065	861.54130489894	1
0	29065	861.54130489894	0
0	29496	908.15822484703	1
0	29496	908.15822484703	0
0	29851	928.78366599259	1
0	29851	928.78366599259	0
0	29973	931.19977399751	1
0	30001	931.72159616423	0
0	30115	936.79161502421	1
0	30115	936.79161502421	0
0	30297	940.87429579541	1
0	30297	940.87429579541	0
0	30752	958.90849465177	1
0	30752	958.90849465177	0
0	31065	962.50285983942	1
0	31065	962.50285983942	0
0	31509	966.97847407887	1
0	31509	966.97847407887	0
0	32182	980.98217152608	1
0	32182	980.98217152608	0
0	32372	985.76512301309	1
0	32372	985.76512301309	0
0	32608	990.476957799	1
0	32608	990.476957799	0
0	32847	996.983430552	1
0	32847	996.983430552	0
0	32965	999.321282604	1
0	32965	999.321282604	0
0	33092	1008.65656232224	1
0	33092	1008.65656232224	0
0	33337	1012.4071135713	1
0	33337	1012.4071135713	0
0	33737	1034.21242141889	1
0	33737	1034.21242141889	0
0	33932	1037.28796365609	1
0	33932	1037.28796365609	0
0	34286	1055.26012931074	1
0	34286	1055.26012931074	0
0	34622	1073.75614081507	1
0	34622	1073.75614081507	0
0	34811	1078.50294410612	1
0	34811	1078.50294410612	0
0	35210	1087.21772874565	1
0	35210	1087.21772874565	0
0	35352	1090.06151239049	1
0	35352	1090.06151239049	0
0	35746	1108.90769626329	1
0	35746	1108.90769626329	0
0	35856	1115.2890661874	1
0	35856	1115.2890661874	0
0	35985	1120.14508269028	1
0	35985	1120.14508269028	0
0	36330	1127.72800706405	1
0	36330	1127.72800706405	0
0	36487	1136.34296197811	1
0	36487	1136.34296197811	0
0	36806	1143.92342549364	1
0	36806	1143.92342549364	0
0	37377	1162.16483698302	1
0	37377	1162.16483698302	0
0	37587	1165.46953872503	1
0	37587	1165.46953872503	0
0	37886	1173.7046429297	1
0	37886	1173.7046429297	0
0	38219	1178.80762364184	1
0	38219	1178.80762364184	0
0	38422	1182.49157911066	1
0	38422	1182.49157911066	0
0	38595	1185.6870254249	1
0	38595	1185.6870254249	0
0	38886	1191.79710661815	1
0	38886	1191.79710661815	0
0	39311	1213.96290502744	1
0	39311	1213.96290502744	0
0	39521	1228.70249253972	1
0	39521	1228.70249253972	0
0	39815	1235.91893816142	1
0	39815	1235.91893816142	0
0	40089	1252.9317124282	1
0	40089	1252.9317124282	0
0	40427	1256.11748852356	1
0	40427	1256.11748852356	0
0	40640	1261.66159725208	1
0	40640	1261.66159725208	0
0	40880	1271.46804448382	1
0	40880	1271.46804448382	0
0	41022	1275.97747901642	1
0	41022	1275.97747901642	0
0	41150	1278.6043890055	1
0	41150	1278.6043890055	0
0	41263	1287.48097292285	1
0	41263	1287.48097292285	0
0	41415	1298.66555849833	1
0	41415	1298.66555849833	0
0	41683	1308.04256515607	1
0	41683	1308.04256515607	0
0	41873	1312.79813829953	1
0	41873	1312.79813829953	0
0	42218	1323.25722881199	1
0	42218	1323.25722881199	0
0	42460	1327.30971789949	1
0	42460	1327.30971789949	0
0	42619	1332.09509474751	1
0	42619	1332.09509474751	0
0	43064	1340.85900191621	1
0	43064	1340.85900191621	0
0	43182	1345.20948501407	1
0	43182	1345.20948501407	0
0	43468	1347.7509759272	1
0	43468	1347.7509759272	0
0	43729	1355.19423714925	1
0	43729	1355.19423714925	0
0	44066	1366.09410887876	1
0	44066	1366.09410887876	0
0	44247	1369.03905014587	1
0	44247	1369.03905014587	0
0	44426	1379.9597260715	1
0	44426	1379.9597260715	0
0	44653	1389.73639245036	1
0	44653	1389.73639245036	0
0	45003	1401.39672552254	1
0	45003	1401.39672552254	0
0	45267	1414.02097432991	1
0	45267	1414.02097432991	0
0	45493	1429.58377546834	1
0	45493	1429.58377546834	0
0	45747	1441.12984736963	1
0	45747	1441.12984736963	0
0	45960	1443.15504918318	1
0	45984	1444.03946265824	0
0	46199	1446.92953860985	1
0	46199	1446.92953860985	0
0	46450	1463.13113948201	1
0	46450	1463.13113948201	0
0	46586	1465.07182697876	1
0	46586	1465.07182697876	0
0	46827	1469.74105163599	1
0	46827	1469.74105163599	0
0	47244	1479.54074385381	1
0	47244	1479.54074385381	0
0	47459	1486.77468707437	1
0	47459	1486.77468707437	0
0	47732	1494.7525265814	1
0	47732	1494.7525265814	0
0	47909	1496.48815696957	1
0	47909	1496.48815696957	0
0	48043	1498.86373761241	1
0	48043	1498.86373761241	0
0	48283	1507.82666947176	1
0	48283	1507.82666947176	0
0	48422	1514.5771471057	1
0	48422	1514.5771471057	0
0	48601	1518.95670135347	1
0	48601	1518.95670135347	0
0	48813	1532.02924948823	1
0	48813	1532.02924948823	0
0	49260	1537.00955399347	1
0	49260	1537.00955399347	0
0	49404	1541.26535384131	1
0	49404	1541.26535384131	0
0	49724	1557.16953233775	1
0	49724	1557.16953233775	0
0	49884	1564.61796877538	1
0	49884	1564.61796877538	0
0	50054	1567.5826599902	1
0	50054	1567.5826599902	0
0	50346	1573.81524634248	1
0	50346	1573.81524634248	0
0	50866	1591.25190108486	1
0	50866	1591.25190108486	0
0	51062	1596.33081866593	1
0	51062	1596.33081866593	0
0	51225	1601.37232922105	1
0	51225	1601.37232922105	0
0	51575	1620.4583707862	1
0	51575	1620.4583707862	0
0	51694	1623.28135125091	1
0	51694	1623.28135125091	0
0	51815	1632.86500217593	1
0	51815	1632.86500217593	0
0	51999	1637.89614693104	1
0	51999	1637.89614693104	0
0	52260	1650.34611389618	1
0	52260	1650.34611389618	0
0	52658	1662.1102679107	1
0	52658	1662.1102679107	0
0	53101	1674.15564114034	1
0	53101	1674.15564114034	0
0	53506	1686.12927448572	1
0	53506	1686.12927448572	0
0	53690	1692.10984296296	1
0	53690	1692.10984296296	0
0	53823	1700.47956734365	1
0	53823	1700.47956734365	0
0	53954	1704.39033966295	1
0	53954	1704.39033966295	0
0	54151	1708.44344517822	1
0	54151	1708.44344517822	0
0	54455	1716.04107985879	1
0	54455	1716.04107985879	0
0	54689	1719.3439087965	1
0	54689	1719.3439087965	0
0	54912	1724.2152337696	1
0	54912	1724.2152337696	0
0	55072	1729.21597508825	1
0	55072	1729.21597508825	0
0	55773	1755.0935677445	1
0	55773	1755.0935677445	0
0	55991	1766.16747068122	1
0	55991	1766.16747068122	0
0	56174	1775.26000179989	1
0	56174	1775.26000179989	0
0	56463	1777.24166740918	1
0	56463	1777.24166740918	0
0	56726	1782.59392484385	1
0	56726	1782.59392484385	0
0	56971	1785.92454011305	1
0	56971	1785.92454011305	0
0	57837	1835.13966208157	1
0	57837	1835.13966208157	0
0	58004	1844.22328436608	1
0	58004	1844.22328436608	0
0	58124	1851.79561797886	1
0	58124	1851.79561797886	0
0	58264	1859.32204441902	1
0	58264	1859.32204441902	0
0	58535	1868.64004257156	1
0	58535	1868.64004257156	0
0	58937	1884.69056087566	1
0	58937	1884.69056087566	0
0	59096	1889.09740780077	1
0	59096	1889.09740780077	0
0	59230	1895.45984088883	1
0	59230	1895.45984088883	0
0	59381	1897.1891018241	1
0	59381	1897.1891018241	0
0	59514	1899.93970743039	1
0	59514	1899.93970743039	0
0	59730	1902.77092256581	1
0	59730	1902.77092256581	0
0	60000	1909.09791946897	1
0	60000	1909.09791946897	0
0	60343	1914.209617243	1
0	60343	1914.209617243	0
0	60573	1920.79669712557	1
0	60573	1920.79669712557	0
0	60805	1928.30011358692	1
0	60805	1928.30011358692	0
0	61143	1932.2742543405	1
0	61143	1932.2742543405	0
0	61874	1956.68093651699	1
0	61874	1956.68093651699	0
0	62620	1972.62224061235	1
0	62620	1972.62224061235	0
0	62858	1986.68465310935	1
0	62858	1986.68465310935	0
0	63416	2007.84559219829	1
0	63416	2007.84559219829	0
0	63609	2021.70394021024	1
0	63609	2021.70394021024	0
0	63947	2036.37345305628	1
0	63947	2036.37345305628	0
0	64188	2048.42354663524	1
0	64188	2048.42354663524	0
0	64308	2054.94736615041	1
0	64308	2054.94736615041	0
0	64441	2060.46284750726	1
0	64441	2060.46284750726	0
0	64592	2077.24144864331	1
0	64592	2077.24144864331	0
0	64703	2082.58500045602	1
0	64703	2082.58500045602	0
0	65013	2089.31280169379	1
0	65013	2089.31280169379	0
0	65299	2096.27063566353	1
0	65299	2096.27063566353	0
0	65632	2101.54070109014	1
0	65632	2101.54070109014	0
0	65764	2103.52483449004	1
0	65793	2103.63862197769	0
0	66031	2111.76936958888	1
0	66031	2111.76936958888	0
0	66365	2125.01916757517	1
0	66365	2125.01916757517	0
0	66701	2133.60181086026	1
0	66701	2133.60181086026	0
0	67066	2136.07460951339	1
0	67207	2137.20112175445	0
0	67323	2138.46883198636	1
0	67323	2138.46883198636	0
0	67915	2144.83992618807	1
0	67915	2144.83992618807	0
0	68308	2154.05022976687	1
0	68308	2154.05022976687	0
0	68542	2156.90502487909	1
0	68542	2156.90502487909	0
0	68733	2170.56479533423	1
0	68733	2170.56479533423	0
0	69194	2195.61094705588	1
0	69194	2195.61094705588	0
0	69337	2201.06320485939	1
0	69337	2201.06320485939	0
0	69696	2234.13265901044	1
0	69696	2234.13265901044	0
0	69911	2238.21848113029	1
0	69911	2238.21848113029	0
0	70158	2246.90193601367	1
0	70158	2246.90193601367	0
0	70337	2257.97974580153	1
0	70337	2257.97974580153	0
0	70569	2260.32613449433	1
0	70569	2260.32613449433	0
0	70697	2271.11495666822	1
0	70697	2271.11495666822	0
0	70836	2273.84636929417	1
0	70836	2273.84636929417	0
0	70999	2280.93568124594	1
0	70999	2280.93568124594	0
0	71627	2296.17860902482	1
0	71627	2296.17860902482	0
0	71857	2299.68010835274	1
0	71857	2299.68010835274	0
0	72101	2307.06552936161	1
0	72101	2307.06552936161	0
0	72363	2311.34032123315	1
0	72363	2311.34032123315	0
0	72528	2315.45374657472	1
0	72528	2315.45374657472	0
0	72851	2321.82011995613	1
0	72851	2321.82011995613	0
0	72960	2324.53915573064	1
0	72960	2324.53915573064	0
0	73093	2334.11641387778	1
0	73093	2334.11641387778	0
0	73458	2340.39461453001	1
0	73458	2340.39461453001	0
0	73688	2345.19170817363	1
0	73688	2345.19170817363	0
0	73863	2351.8703022845	1
0	73863	2351.8703022845	0
0	74508	2371.49949350334	1
0	74508	2371.49949350334	0
0	74776	2378.91282467507	1
0	74776	2378.91282467507	0
0	74941	2386.97429239617	1
0	74941	2386.97429239617	0
0	75129	2397.65845273543	1
0	75129	2397.65845273543	0
0	75391	2421.18130367645	1
0	75391	2421.18130367645	0
0	75512	2426.84233428324	1
0	75512	2426.84233428324	0
0	75956	2441.19442165228	1
0	75956	2441.19442165228	0
0	76165	2446.44947353013	1
0	76165	2446.44947353013	0
0	76595	2469.01330525033	1
0	76595	2469.01330525033	0
0	76900	2479.35028560503	1
0	76900	2479.35028560503	0
0	77040	2482.37908842955	1
0	77040	2482.37908842955	0
0	77211	2486.75932286204	1
0	77211	2486.75932286204	0
0	77408	2489.01211900465	1
0	77408	2489.01211900465	0
0	77684	2491.7083327271	1
0	77684	2491.7083327271	0
0	77977	2494.8714803599	1
0	77977	2494.8714803599	0
0	78284	2500.67505835362	1
0	78284	2500.67505835362	0
0	78395	2510.02549629384	1
0	78395	2510.02549629384	0
0	78950	2528.38830143875	1
0	78950	2528.38830143875	0
0	79741	2549.55350539035	1
0	79741	2549.55350539035	0
0	80054	2552.48003782367	1
0	80054	2552.48003782367	0
0	80334	2557.2054281236	1
0	80334	2557.2054281236	0
0	80468	2566.15556954377	1
0	80468	2566.15556954377	0
0	80708	2570.28951854339	1
0	80708	2570.28951854339	0
0	80961	2591.6254152781	1
0	80961	2591.6254152781	0
0	81190	2604.64628188498	1
0	81190	2604.64628188498	0
0	81319	2606.99206292475	1
0	81319	2606.99206292475	0
0	81633	2620.26264501728	1
0	81633	2620.26264501728	0
0	81852	2627.59707432635	1
0	81852	2627.59707432635	0
0	82171	2643.29195329293	1
0	82171	2643.29195329293	0
0	82544	2649.2706334701	1
0	82544	2649.2706334701	0
0	82657	2651.84278578258	1
0	82657	2651.84278578258	0
0	82801	2657.5757215934	1
0	82801	2657.5757215934	0
0	82970	2663.94284295705	1
0	82970	2663.94284295705	0
0	83154	2668.41593114155	1
0	83154	2668.41593114155	0
0	83313	2672.68738416504	1
0	83313	2672.68738416504	0
0	83542	2676.79450330503	1
0	83542	2676.79450330503	0
0	83657	2680.73916163927	1
0	83690	2683.06607058743	0
0	83850	2684.86392567647	1
0	83850	2684.86392567647	0
0	83944	2686.55995386506	1
0	83944	2686.55995386506	0
0	84074	2688.55998688111	1
0	84074	2688.55998688111	0
0	84472	2693.10590817394	1
0	84472	2693.10590817394	0
0	84653	2709.27643059785	1
0	84653	2709.27643059785	0
0	85158	2722.14373101015	1
0	85158	2722.14373101015	0
0	85616	2728.79946862021	1
0	85616	2728.79946862021	0
0	86234	2745.54405823485	1
0	86234	2745.54405823485	0
0	86642	2766.72863392867	1
0	86642	2766.72863392867	0
0	86968	2783.0984993896	1
0	86968	2783.0984993896	0
0	87164	2804.55795043396	1
0	87164	2804.55795043396	0
0	88045	2829.16384075548	1
0	88045	2829.16384075548	0
0	88226	2832.25131902374	1
0	88226	2832.25131902374	0
0	88360	2835.41448938192	1
0	88360	2835.41448938192	0
0	88607	2850.04075863269	1
0	88607	2850.04075863269	0
0	88754	2852.19317877509	1
0	88754	2852.19317877509	0
0	89092	2868.00844879728	1
0	89092	2868.00844879728	0
0	89397	2873.51290531784	1
0	89397	2873.51290531784	0
0	89564	2876.60914227418	1
0	89564	2876.60914227418	0
0	89854	2889.51748528691	1
0	89854	2889.51748528691	0
0	90233	2895.592183232	1
0	90233	2895.592183232	0
0	90419	2898.77691410366	1
0	90419	2898.77691410366	0
0	90726	2909.79698337365	1
0	90726	2909.79698337365	0
0	91118	2918.09682585187	1
0	91118	2918.09682585187	0
0	91515	2920.61853089175	1
0	91515	2920.61853089175	0
0	91957	2945.86790361539	1
0	91957	2945.86790361539	0
0	92129	2950.16100831375	1
0	92129	2950.16100831375	0
0	92306	2956.74145495494	1
0	92306	2956.74145495494	0
0	92771	2971.89984579662	1
0	92771	2971.89984579662	0
0	93228	2989.51796548926	1
0	93228	2989.51796548926	0
0	93840	3020.87589900068	1
0	93840	3020.87589900068	0
0	93945	3029.26250812214	1
0	93945	3029.26250812214	0
0	94209	3037.96504601122	1
0	94209	3037.96504601122	0
0	94371	3040.02968784475	1
0	94371	3040.02968784475	0
0	94692	3053.43940915207	1
0	94692	3053.43940915207	0
0	94798	3055.73618214585	1
0	94798	3055.73618214585	0
0	95146	3060.79300531209	1
0	95146	3060.79300531209	0
0	95292	3063.74570765692	1
0	95292	3063.74570765692	0
0	95519	3067.56051348737	1
0	95519	3067.56051348737	0
0	95870	3081.46189263717	1
0	95870	3081.46189263717	0
0	96189	3089.2442143265	1
0	96189	3089.2442143265	0
0	96513	3097.4232249002	1
0	96513	3097.4232249002	0
0	96697	3100.39005088434	1
0	96697	3100.39005088434	0
0	96953	3104.74193883278	1
0	96953	3104.74193883278	0
0	97075	3108.92762446931	1
0	97075	3108.92762446931	0
0	97530	3118.83948932551	1
0	97530	3118.83948932551	0
0	97930	3129.60620686095	1
0	97930	3129.60620686095	0
0	98498	3153.65520579354	1
0	98498	3153.65520579354	0
0	98890	3183.02883359224	1
0	98890	3183.02883359224	0
0	99198	3190.13263544754	1
0	99198	3190.13263544754	0
0	99578	3205.09147800828	1
0	99578	3205.09147800828	0
0	99899	3215.27807690983	1
0	99899	3215.27807690983	0
0	100010	3218.20887109261	1
0	100010	3218.20887109261	0
0	100248	3247.32925174141	1
0	100248	3247.32925174141	0
0	100392	3249.87213728573	1
0	100392	3249.87213728573	0
0	100620	3256.06843637447	1
0	100620	3256.06843637447	0
0	100858	3259.84040467557	1
0	100858	3259.84040467557	0
0	101227	3265.02500964866	1
0	101227	3265.02500964866	0
0	101609	3274.13060587224	1
0	101609	3274.13060587224	0
0	101721	3276.69531179415	1
0	101721	3276.69531179415	0
0	101872	3280.48120359484	1
0	101872	3280.48120359484	0
0	101978	3282.65769446786	1
0	102058	3282.97213845932	0
0	102516	3291.65361904854	1
0	102516	3291.65361904854	0
0	102910	3294.80321427135	1
0	102910	3294.80321427135	0
0	103046	3299.8821630608	1
0	103061	3301.41930213295	0
0	103271	3304.59728711685	1
0	103271	3304.59728711685	0
0	103576	3309.95106028734	1
0	103576	3309.95106028734	0
0	103780	3314.53616091696	1
0	103780	3314.53616091696	0
0	104107	3334.79529226367	1
0	104107	3334.79529226367	0
0	104343	3352.16935392755	1
0	104343	3352.16935392755	0
0	104811	3364.07745096999	1
0	104811	3364.07745096999	0
0	105176	3376.763179034	1
0	105176	3376.763179034	0
0	105773	3404.23081690048	1
0	105773	3404.23081690048	0
0	105993	3414.93172545281	1
0	105993	3414.93172545281	0
0	106241	3436.32901617115	1
0	106241	3436.32901617115	0
0	106463	3441.4292794421	1
0	106463	3441.4292794421	0
0	106732	3449.29568978329	1
0	106732	3449.29568978329	0
0	106897	3454.81798764472	1
0	106897	3454.81798764472	0
0	107402	3462.4766451288	1
0	107402	3462.4766451288	0
0	108198	3477.11436212879	1
0	108198	3477.11436212879	0
0	108651	3485.96557626628	1
0	108651	3485.96557626628	0
0	109226	3501.29651316	1
0	109226	3501.29651316	0
0	109897	3519.05312907053	1
0	109897	3519.05312907053	0
0	110189	3526.33824468641	1
0	110189	3526.33824468641	0
0	110367	3536.32580370285	1
0	110367	3536.32580370285	0
0	110653	3554.07095206663	1
0	110653	3554.07095206663	0
0	111022	3566.07665129054	1
0	111022	3566.07665129054	0
0	111156	3573.75248681517	1
0	111156	3573.75248681517	0
0	111486	3598.37509700919	1
0	111486	3598.37509700919	0
1	5461	60.50089230052	1.7121310688
1	5572	71.72266367282	1.7121304019
1	5702	75.76360373273	1.71212977926
1	6044	181.57375102885	1.71213292026
1	7017	191.37892375849	1.71212967204
1	7413	193.77082246849	1.71213004697
1	7711	196.24248363911	1.71212971337
1	8158	205.54590406602	1.7121303013
1	8394	208.00159971515	1.71213010906
1	8866	212.9948389125	1.71213266486
1	9031	215.36473900251	1.71212973471
1	9229	217.61471285222	1.71213041904
1	9457	219.86918741406	1.71213021729
1	9723	222.13620165273	1.71213169072
1	10896	256.32045063736	1.71212977926
1	11842	361.34188648123	1.71213249306
1	12323	373.06922957214	1.71213071648
1	12488	379.01895261635	1.71213006084
1	12858	386.24441413425	1.71213072641
1	13128	390.66673975807	1.71212973471
1	13331	395.24669822962	1.7121303013
1	13880	402.41463628246	1.71212971337
1	14177	406.6998960441	1.71213021729
1	14529	412.28978437957	1.71212967204
1	14789	414.84972583158	1.73198111398
1	14916	418.28185569166	1.71213010906
1	15049	420.69429190934	1.71213059251
1	15509	428.10400321791	1.71213169072
1	15851	433.11266121705	1.71213008585
1	16087	441.1418777531	1.7121304019
1	16322	445.32166257857	1.71212977926
1	16593	452.24976818314	1.71213108005
1	16916	461.50339974215	1.71213003268
1	17212	487.09031073239	1.71213369053
1	17321	491.2561979396	1.71213066997
1	17472	494.38656515088	1.7121310688
1	17594	508.37458003323	1.71213033338
1	17952	546.11444221074	1.71212998906
1	18084	552.5499015608	1.71213004697
1	18375	565.04413103412	1.71212973471
1	18448	566.72879157875	1.71213043397
1	18904	575.8112653382	1.71213006084
1	19161	579.02130436913	1.7121303013
1	19309	581.06176655531	1.71213226552
1	19637	587.34295424031	1.71212967204
1	20085	594.28347130171	1.71213071648
1	20410	598.08990099614	1.71212971337
1	20719	605.82040800963	1.71213008585
1	21364	620.56358129402	1.71213059251
1	21797	625.7426910364	1.71212977926
1	22490	640.12061817989	1.71213010906
1	22642	651.42489429596	1.71213135992
1	22859	665.69835549015	1.71213003268
1	23232	681.30722250244	1.71213118653
1	23352	699.50127496753	1.71213033338
1	23494	706.80312901195	1.7121310688
1	23603	711.92652390377	1.71213066997
1	23846	722.62553871704	1.71212998906
1	24135	738.8310957495	1.71213293797
1	24242	741.43237740036	1.71213041626
1	24395	753.84732051742	1.71213072641
1	24878	764.50403332328	1.71212967204
1	25181	770.38610948937	1.71212971337
1	25390	773.58585191492	2.72452761546
1	25783	779.78526024143	1.71213008585
1	26519	786.93935176009	1.71213021729
1	26715	793.05921665122	1.7121304019
1	26868	795.79115278833	1.71213071648
1	26975	798.31512936052	1.71212977926
1	27802	821.82634748227	1.71213010906
1	27918	823.6355989283	1.71213004697
1	28129	827.78685519333	1.71213135992
1	28412	833.22135518524	1.71213059251
1	28590	840.79811994081	1.71213003268
1	28891	850.19300638781	1.7121303013
1	29065	861.54130489894	1.71213456708
1	29496	908.15822484703	1.71213066997
1	29851	928.78366599259	1.71213041626
1	30001	931.72159616423	2.23395260069
1	30115	936.79161502421	1.71212998906
1	30297	940.87429579541	1.71212967204
1	31065	962.50285983942	1.71213162626
1	31509	966.97847407887	1.71213008585
1	32182	980.98217152608	1.71212977926
1	32372	985.76512301309	1.71213322048
1	32608	990.476957799	1.7121309157
1	32847	996.983430552	1.71213072641
1	32965	999.321282604	1.71213041904
1	33092	1008.65656232224	1.71213004697
1	33337	1012.4071135713	1.71213010906
1	33737	1034.21242141889	1.71213003268
1	33932	1037.28796365609	1.71213059251
1	34286	1055.26012931074	1.7121303013
1	34622	1073.75614081507	1.7121304019
1	34811	1078.50294410612	1.71212971337
1	35210	1087.21772874565	1.71213066997
1	35352	1090.06151239049	1.71213033338
1	35746	1108.90769626329	1.71213293797
1	35856	1115.2890661874	1.71213041626
1	35985	1120.14508269028	1.71213006084
1	36330	1127.72800706405	1.71212967204
1	36487	1136.34296197811	1.71213057881
1	36806	1143.92342549364	1.71213021729
1	37377	1162.16483698302	1.71212973471
1	37587	1165.46953872503	1.7121309157
1	37886	1173.7046429297	1.71213072641
1	38219	1178.80762364184	1.71213008585
1	38422	1182.49157911066	1.71213209789
1	38595	1185.6870254249	1.71213010906
1	38886	1191.79710661815	1.71213041904
1	39311	1213.96290502744	1.71213135992
1	39521	1228.70249253972	1.71212977926
1	39815	1235.91893816142	1.71213253668
1	40089	1252.9317124282	1.71213004697
1	40427	1256.11748852356	1.7121304019
1	40640	1261.66159725208	1.7121303013
1	40880	1271.46804448382	1.71213033338
1	41022	1275.97747901642	1.71213158374
1	41150	1278.6043890055	1.71213215791
1	41263	1287.48097292285	1.71213041626
1	41415	1298.66555849833	1.71213177782
1	42218	1323.25722881199	1.71213021729
1	42460	1327.30971789949	1.71213006084
1	42619	1332.09509474751	1.71213122052
1	43064	1340.85900191621	1.71213071648
1	43182	1345.20948501407	1.71213021852
1	43468	1347.7509759272	1.71212973471
1	44247	1369.03905014587	1.71213168139
1	44426	1379.9597260715	1.71213010906
1	44653	1389.73639245036	1.71212998906
1	45003	1401.39672552254	1.71212977926
1	45267	1414.02097432991	1.71213072641
1	45493	1429.58377546834	1.71213041904
1	45747	1441.12984736963	1.7121305821
1	45984	1444.03946265824	2.59654414503
1	46199	1446.92953860985	1.71213004697
1	46586	1465.07182697876	1.71213033338
1	46827	1469.74105163599	1.7121303013
1	47244	1479.54074385381	1.71213158374
1	47459	1486.77468707437	1.7121329059
1	47732	1494.7525265814	1.71212971337
1	47909	1496.48815696957	1.71212967204
1	48043	1498.86373761241	1.71213006084
1	48283	1507.82666947176	1.71213043397
1	48422	1514.5771471057	1.71213041626
1	48813	1532.02924948823	1.7121309157
1	49260	1537.00955399347	1.71213122052
1	49404	1541.26535384131	1.71213162626
1	49724	1557.16953233775	1.71212973471
1	49884	1564.61796877538	1.71213135992
1	50346	1573.81524634248	1.71212998906
1	50866	1591.25190108486	1.71213010906
1	51062	1596.33081866593	1.71213072641
1	51225	1601.37232922105	1.71212977926
1	51575	1620.4583707862	1.71213358405
1	51694	1623.28135125091	1.71213059251
1	51815	1632.86500217593	1.71213066997
1	51999	1637.89614693104	1.71213004697
1	52260	1650.34611389618	1.7121305821
1	53101	1674.15564114034	1.71213003268
1	53506	1686.12927448572	1.71212971337
1	53690	1692.10984296296	1.71213043397
1	53823	1700.47956734365	1.71213006084
1	53954	1704.39033966295	1.71212967204
1	54151	1708.44344517822	1.7121303013
1	54455	1716.04107985879	1.71213169072
1	54689	1719.3439087965	1.7121309157
1	54912	1724.2152337696	1.71213021852
1	55072	1729.21597508825	1.71213122052
1	55773	1755.0935677445	1.71213249306
1	55991	1766.16747068122	1.71212973471
1	56174	1775.26000179989	1.71212977926
1	56463	1777.24166740918	1.71213041626
1	56726	1782.59392484385	1.71213010906
1	56971	1785.92454011305	1.71213072641
1	57837	1835.13966208157	1.71213004697
1	58004	1844.22328436608	1.71213266486
1	58124	1851.79561797886	1.71213033338
1	58264	1859.32204441902	1.7121305821
1	58535	1868.64004257156	1.71213003268
1	58937	1884.69056087566	1.7121329059
1	59096	1889.09740780077	1.71213043397
1	59230	1895.45984088883	1.71213021729
1	59381	1897.1891018241	1.7121309157
1	59514	1899.93970743039	1.71213262707
1	60000	1909.09791946897	1.71213169072
1	60343	1914.209617243	1.71213226552
1	60573	1920.79669712557	1.71213008585
1	60805	1928.30011358692	1.71213006084
1	61143	1932.2742543405	1.71213021852
1	62620	1972.62224061235	1.71212967204
1	62858	1986.68465310935	1.71212973471
1	63416	2007.84559219829	1.71213255097
1	63609	2021.70394021024	1.7121310688
1	63947	2036.37345305628	1.7121305821
1	64308	2054.94736615041	1.71213066997
1	64441	2060.46284750726	1.71213003268
1	64592	2077.24144864331	1.71213118653
1	64703	2082.58500045602	1.71212971337
1	65013	2089.31280169379	1.7121309157
1	65299	2096.27063566353	1.71213059251
1	65632	2101.54070109014	1.71213043397
1	66365	2125.01916757517	1.71212998906
1	66701	2133.60181086026	1.71213256484
1	67207	2137.20112175445	2.83864202032
1	67323	2138.46883198636	1.71213041904
1	67915	2144.83992618807	1.71213108005
1	68308	2154.05022976687	1.71212967204
1	68542	2156.90502487909	1.71213041626
1	69696	2234.13265901044	1.71213057881
1	69911	2238.21848113029	1.71213066997
1	70158	2246.90193601367	1.71213003268
1	70337	2257.97974580153	1.7121330861
1	70569	2260.32613449433	1.71213118653
1	70836	2273.84636929417	1.7121309157
1	70999	2280.93568124594	1.7121304019
1	71627	2296.17860902482	1.71212971337
1	71857	2299.68010835274	1.71213043397
1	72101	2307.06552936161	1.71213006084
1	72363	2311.34032123315	1.71213072641
1	72528	2315.45374657472	1.71212977926
1	72960	2324.53915573064	1.71212998906
1	73093	2334.11641387778	1.71213041626
1	73458	2340.39461453001	1.71213122052
1	73688	2345.19170817363	1.71213008585
1	73863	2351.8703022845	1.71212973471
1	74508	2371.49949350334	1.71213321161
1	74776	2378.91282467507	1.71213261306
1	74941	2386.97429239617	1.71213004697
1	75129	2397.65845273543	1.71212967204
1	75391	2421.18130367645	1.71213158374
1	75512	2426.84233428324	1.71213033338
1	75956	2441.19442165228	1.71213003268
1	76165	2446.44947353013	1.71213118653
1	76595	2469.01330525033	1.7121304019
1	76900	2479.35028560503	1.71212971337
1	77040	2482.37908842955	1.7121303013
1	77211	2486.75932286204	1.71213021852
1	77408	2489.01211900465	1.71213059251
1	77684	2491.7083327271	1.71212977926
1	78284	2500.67505835362	1.71213358405
1	78395	2510.02549629384	1.71212998906
1	78950	2528.38830143875	1.71212973471
1	79741	2549.55350539035	1.71213008585
1	80054	2552.48003782367	1.71213162626
1	80334	2557.2054281236	1.71213006084
1	80468	2566.15556954377	1.71213021729
1	80708	2570.28951854339	1.71212967204
1	80961	2591.6254152781	1.71213010906
1	81190	2604.64628188498	1.71213004697
1	81319	2606.99206292475	1.71213066997
1	81633	2620.26264501728	1.71213168139
1	81852	2627.59707432635	1.71213253668
1	82544	2649.2706334701	1.7121305821
1	82657	2651.84278578258	1.71212971337
1	82801	2657.5757215934	1.7121303013
1	82970	2663.94284295705	1.71212977926
1	83154	2668.41593114155	1.71213021852
1	83313	2672.68738416504	1.71213072641
1	83542	2676.79450330503	1.71213059251
1	83690	2683.06607058743	4.03903938213
1	83850	2684.86392567647	1.71212998906
1	83944	2686.55995386506	1.71213108005
1	84074	2688.55998688111	1.7121309157
1	84472	2693.10590817394	1.71213057881
1	84653	2709.27643059785	1.71213041904
1	85158	2722.14373101015	1.71213041626
1	85616	2728.79946862021	1.71212973471
1	86234	2745.54405823485	1.71212967204
1	86642	2766.72863392867	1.71213261306
1	87164	2804.55795043396	1.71213033338
1	88045	2829.16384075548	1.71213003268
1	88226	2832.25131902374	1.7121304019
1	88360	2835.41448938192	1.71212977926
1	88607	2850.04075863269	1.71212971337
1	88754	2852.19317877509	1.71213072641
1	89092	2868.00844879728	1.7121303013
1	89397	2873.51290531784	1.71213135992
1	89564	2876.60914227418	1.71212998906
1	89854	2889.51748528691	1.71213309651
1	90233	2895.592183232	1.71213041626
1	90419	2898.77691410366	1.71213021852
1	90726	2909.79698337365	1.71213008585
1	91118	2918.09682585187	1.71212973471
1	91515	2920.61853089175	1.71212967204
1	91957	2945.86790361539	1.71213108005
1	92129	2950.16100831375	1.71213010906
1	92306	2956.74145495494	1.71213004697
1	92771	2971.89984579662	1.71213041904
1	93228	2989.51796548926	1.71213033338
1	93840	3020.87589900068	1.7121329059
1	93945	3029.26250812214	1.71212977926
1	94209	3037.96504601122	1.7121305821
1	94371	3040.02968784475	1.71212971337
1	94692	3053.43940915207	1.71213122052
1	94798	3055.73618214585	1.71213066997
1	95146	3060.79300531209	1.71212998906
1	95292	3063.74570765692	1.71213059251
1	95519	3067.56051348737	1.71213041626
1	95870	3081.46189263717	1.71213021852
1	96189	3089.2442143265	1.71213071648
1	96513	3097.4232249002	1.71212967204
1	96697	3100.39005088434	1.71213006084
1	97075	3108.92762446931	1.71213021729
1	97530	3118.83948932551	1.71212973471
1	98498	3153.65520579354	1.71213293797
1	98890	3183.02883359224	1.71213041904
1	99198	3190.13263544754	1.71213215791
1	99578	3205.09147800828	1.71212977926
1	99899	3215.27807690983	1.7121305821
1	100010	3218.20887109261	1.71213003268
1	100392	3249.87213728573	1.71213059251
1	100620	3256.06843637447	1.71212971337
1	100858	3259.84040467557	1.71212998906
1	101227	3265.02500964866	1.71213072641
1	101609	3274.13060587224	1.71213256484
1	101721	3276.69531179415	1.71213041626
1	101872	3280.48120359484	1.71213057881
1	102058	3282.97213845932	2.02657420875
1	102516	3291.65361904854	1.71213118653
1	103061	3301.41930213295	3.24926937345
1	103271	3304.59728711685	1.71213004697
1	103576	3309.95106028734	1.71213008585
1	103780	3314.53616091696	1.7121310688
1	104107	3334.79529226367	1.71212967204
1	104343	3352.16935392755	1.71213043397
1	104811	3364.07745096999	1.71213033338
1	105176	3376.763179034	1.71213215791
1	105773	3404.23081690048	1.71213228326
1	105993	3414.93172545281	1.71213003268
1	106241	3436.32901617115	1.71213059251
1	106463	3441.4292794421	1.71213021852
1	106732	3449.29568978329	1.7121305821
1	107402	3462.4766451288	1.71213021729
1	108198	3477.11436212879	1.71213004697
1	108651	3485.96557626628	1.71213006084
1	109226	3501.29651316	1.71213066997
1	109897	3519.05312907053	1.71212967204
1	110189	3526.33824468641	1.71213293797
1	110367	3536.32580370285	1.71213033338
1	110653	3554.07095206663	1.71213041904
1	111022	3566.07665129054	1.71213169072
1	111156	3573.75248681517	1.71213272627
1	111486	3598.37509700919	1.71213003268
2	5461	60.50089230052	1.7121310688
2	5572	71.72266367282	1.7121304019
2	5702	75.76360373273	1.71212977926
2	6044	181.57375102885	1.71213292026
2	7017	191.37892375849	1.71212967204
2	7413	193.77082246849	1.71213004697
2	7711	196.24248363911	1.71212971337
2	8158	205.54590406602	1.7121303013
2	8394	208.00159971515	1.71213010906
2	8866	212.9948389125	1.71213266486
2	9031	215.36473900251	1.71212973471
2	9229	217.61471285222	1.71213041904
2	9457	219.86918741406	1.71213021729
2	9723	222.13620165273	1.71213169072
2	10896	256.32045063736	1.71212977926
2	11842	361.34188648123	1.71213249306
2	12323	373.06922957214	1.71213071648
2	12488	379.01895261635	1.71213006084
2	12858	386.24441413425	1.71213072641
2	13128	390.66673975807	1.71212973471
2	13331	395.24669822962	1.7121303013
2	13880	402.41463628246	1.71212971337
2	14177	406.6998960441	1.71213021729
2	14529	412.28978437957	1.71212967204
2	14789	414.84972583158	1.73198111398
2	14916	418.28185569166	1.71213010906
2	15049	420.69429190934	1.71213059251
2	15509	428.10400321791	1.71213169072
2	15851	433.11266121705	1.71213008585
2	16087	441.1418777531	1.7121304019
2	16322	445.32166257857	1.71212977926
2	16593	452.24976818314	1.71213108005
2	16916	461.50339974215	1.71213003268
2	17212	487.09031073239	1.71213369053
2	17321	491.2561979396	1.71213066997
2	17472	494.38656515088	1.7121310688
2	17594	508.37458003323	1.71213033338
2	17952	546.11444221074	1.71212998906
2	18084	552.5499015608	1.71213004697
2	18375	565.04413103412	1.71212973471
2	18448	566.72879157875	1.71213043397
2	18904	575.8112653382	1.71213006084
2	19161	579.02130436913	1.7121303013
2	19309	581.06176655531	1.71213226552
2	19637	587.34295424031	1.71212967204
2	20085	594.28347130171	1.71213071648
2	20410	598.08990099614	1.71212971337
2	20719	605.82040800963	1.71213008585
2	21364	620.56358129402	1.71213059251
2	21797	625.7426910364	1.71212977926
2	22490	640.12061817989	1.71213010906
2	22642	651.42489429596	1.71213135992
2	22859	665.69835549015	1.71213003268
2	23232	681.30722250244	1.71213118653
2	23352	699.50127496753	1.71213033338
2	23494	706.80312901195	1.7121310688
2	23603	711.92652390377	1.71213066997
2	23846	722.62553871704	1.71212998906
2	24135	738.8310957495	1.71213293797
2	24242	741.43237740036	1.71213041626
2	24395	753.84732051742	1.71213072641
2	24878	764.50403332328	1.71212967204
2	25181	770.38610948937	1.71212971337
2	25390	773.58585191492	2.72452761546
2	25783	779.78526024143	1.71213008585
2	26519	786.93935176009	1.71213021729
2	26715	793.05921665122	1.7121304019
2	26868	795.79115278833	1.71213071648
2	26975	798.31512936052	1.71212977926
2	27802	821.82634748227	1.71213010906
2	27918	823.6355989283	1.71213004697
2	28129	827.78685519333	1.71213135992
2	28412	833.22135518524	1.71213059251
2	28590	840.79811994081	1.71213003268
2	28891	850.19300638781	1.7121303013
2	29065	861.54130489894	1.71213456708
2	29496	908.15822484703	1.71213066997
2	29851	928.78366599259	1.71213041626
2	30001	931.72159616423	2.23395260069
2	30115	936.79161502421	1.71212998906
2	30297	940.87429579541	1.71212967204
2	31065	962.50285983942	1.71213162626
2	31509	966.97847407887	1.71213008585
2	32182	980.98217152608	1.71212977926
2	32372	985.76512301309	1.71213322048
2	32608	990.476957799	1.7121309157
2	32847	996.983430552	1.71213072641
2	32965	999.321282604	1.71213041904
2	33092	1008.65656232224	1.71213004697
2	33337	1012.4071135713	1.71213010906
2	33737	1034.21242141889	1.71213003268
2	33932	1037.28796365609	1.71213059251
2	34286	1055.26012931074	1.7121303013
2	34622	1073.75614081507	1.7121304019
2	34811	1078.50294410612	1.71212971337
2	35210	1087.21772874565	1.71213066997
2	35352	1090.06151239049	1.71213033338
2	35746	1108.90769626329	1.71213293797
2	35856	1115.2890661874	1.71213041626
2	35985	1120.14508269028	1.71213006084
2	36330	1127.72800706405	1.71212967204
2	36487	1136.34296197811	1.71213057881
2	36806	1143.92342549364	1.71213021729
2	37377	1162.16483698302	1.71212973471
2	37587	1165.46953872503	1.7121309157
2	37886	1173.7046429297	1.71213072641
2	38219	1178.80762364184	1.71213008585
2	38422	1182.49157911066	1.71213209789
2	38595	1185.6870254249	1.71213010906
2	38886	1191.79710661815	1.71213041904
2	39311	1213.96290502744	1.71213135992
2	39521	1228.70249253972	1.71212977926
2	39815	1235.91893816142	1.71213253668
2	40089	1252.9317124282	1.71213004697
2	40427	1256.11748852356	1.7121304019
2	40640	1261.66159725208	1.7121303013
2	40880	1271.46804448382	1.71213033338
2	41022	1275.97747901642	1.71213158374
2	41150	1278.6043890055	1.71213215791
2	41263	1287.48097292285	1.71213041626
2	41415	1298.66555849833	1.71213177782
2	42218	1323.25722881199	1.71213021729
2	42460	1327.30971789949	1.71213006084
2	42619	1332.09509474751	1.71213122052
2	43064	1340.85900191621	1.71213071648
2	43182	1345.20948501407	1.71213021852
2	43468	1347.7509759272	1.71212973471
2	44247	1369.03905014587	1.71213168139
2	44426	1379.9597260715	1.71213010906
2	44653	1389.73639245036	1.71212998906
2	45003	1401.39672552254	1.71212977926
2	45267	1414.02097432991	1.71213072641
2	45493	1429.58377546834	1.71213041904
2	45747	1441.12984736963	1.7121305821
2	45984	1444.03946265824	2.59654414503
2	46199	1446.92953860985	1.71213004697
2	46586	1465.07182697876	1.71213033338
2	46827	1469.74105163599	1.7121303013
2	47244	1479.54074385381	1.71213158374
2	47459	1486.77468707437	1.7121329059
2	47732	1494.7525265814	1.71212971337
2	47909	1496.48815696957	1.71212967204
2	48043	1498.86373761241	1.71213006084
2	48283	1507.82666947176	1.71213043397
2	48422	1514.5771471057	1.71213041626
2	48813	1532.02924948823	1.7121309157
2	49260	1537.00955399347	1.71213122052
2	49404	1541.26535384131	1.71213162626
2	49724	1557.16953233775	1.71212973471
2	49884	1564.61796877538	1.71213135992
2	50346	1573.81524634248	1.71212998906
2	50866	1591.25190108486	1.71213010906
2	51062	1596.33081866593	1.71213072641
2	51225	1601.37232922105	1.71212977926
2	51575	1620.4583707862	1.71213358405
2	51694	1623.28135125091	1.71213059251
2	51815	1632.86500217593	1.71213066997
2	51999	1637.89614693104	1.71213004697
2	52260	1650.34611389618	1.7121305821
2	53101	1674.15564114034	1.71213003268
2	53506	1686.12927448572	1.71212971337
2	53690	1692.10984296296	1.71213043397
2	53823	1700.47956734365	1.71213006084
2	53954	1704.39033966295	1.71212967204
2	54151	1708.44344517822	1.7121303013
2	54455	1716.04107985879	1.71213169072
2	54689	1719.3439087965	1.7121309157
2	54912	1724.2152337696	1.71213021852
2	55072	1729.21597508825	1.71213122052
2	55773	1755.0935677445	1.71213249306
2	55991	1766.16747068122	1.71212973471
2	56174	1775.26000179989	1.71212977926
2	56463	1777.24166740918	1.71213041626
2	56726	1782.59392484385	1.71213010906
2	56971	1785.92454011305	1.71213072641
2	57837	1835.13966208157	1.71213004697
2	58004	1844.22328436608	1.71213266486
2	58124	1851.79561797886	1.71213033338
2	58264	1859.32204441902	1.7121305821
2	58535	1868.64004257156	1.71213003268
2	58937	1884.69056087566	1.7121329059
2	59096	1889.09740780077	1.71213043397
2	59230	1895.45984088883	1.71213021729
2	59381	1897.1891018241	1.7121309157
2	59514	1899.93970743039	1.71213262707
2	60000	1909.09791946897	1.71213169072
2	60343	1914.209617243	1.71213226552
2	60573	1920.79669712557	1.71213008585
2	60805	1928.30011358692	1.71213006084
2	61143	1932.2742543405	1.71213021852
2	62620	1972.62224061235	1.71212967204
2	62858	1986.68465310935	1.71212973471
2	63416	2007.84559219829	1.71213255097
2	63609	2021.70394021024	1.7121310688
2	63947	2036.37345305628	1.7121305821
2	64308	2054.94736615041	1.71213066997
2	64441	2060.46284750726	1.71213003268
2	64592	2077.24144864331	1.71213118653
2	64703	2082.58500045602	1.71212971337
2	65013	2089.31280169379	1.7121309157
2	65299	2096.27063566353	1.71213059251
2	65632	2101.54070109014	1.71213043397
2	66365	2125.01916757517	1.71212998906
2	66701	2133.60181086026	1.71213256484
2	67207	2137.20112175445	2.83864202032
2	67323	2138.46883198636	1.71213041904
2	67915	2144.83992618807	1.71213108005
2	68308	2154.05022976687	1.71212967204
2	68542	2156.90502487909	1.71213041626
2	69696	2234.13265901044	1.71213057881
2	69911	2238.21848113029	1.71213066997
2	70158	2246.90193601367	1.71213003268
2	70337	2257.97974580153	1.7121330861
2	70569	2260.32613449433	1.71213118653
2	70836	2273.84636929417	1.7121309157
2	70999	2280.93568124594	1.7121304019
2	71627	2296.17860902482	1.71212971337
2	71857	2299.68010835274	1.71213043397
2	72101	2307.06552936161	1.71213006084
2	72363	2311.34032123315	1.71213072641
2	72528	2315.45374657472	1.71212977926
2	72960	2324.53915573064	1.71212998906
2	73093	2334.11641387778	1.71213041626
2	73458	2340.39461453001	1.71213122052
2	73688	2345.19170817363	1.71213008585
2	73863	2351.8703022845	1.71212973471
2	74508	2371.49949350334	1.71213321161
2	74776	2378.91282467507	1.71213261306
2	74941	2386.97429239617	1.71213004697
2	75129	2397.65845273543	1.71212967204
2	75391	2421.18130367645	1.71213158374
2	75512	2426.84233428324	1.71213033338
2	75956	2441.19442165228	1.71213003268
2	76165	2446.44947353013	1.71213118653
2	76595	2469.01330525033	1.7121304019
2	76900	2479.35028560503	1.71212971337
2	77040	2482.37908842955	1.7121303013
2	77211	2486.75932286204	1.71213021852
2	77408	2489.01211900465	1.71213059251
2	77684	2491.7083327271	1.71212977926
2	78284	2500.67505835362	1.71213358405
2	78395	2510.02549629384	1.71212998906
2	78950	2528.38830143875	1.71212973471
2	79741	2549.55350539035	1.71213008585
2	80054	2552.48003782367	1.71213162626
2	80334	2557.2054281236	1.71213006084
2	80468	2566.15556954377	1.71213021729
2	80708	2570.28951854339	1.71212967204
2	80961	2591.6254152781	1.71213010906
2	81190	2604.64628188498	1.71213004697
2	81319	2606.99206292475	1.71213066997
2	81633	2620.26264501728	1.71213168139
2	81852	2627.59707432635	1.71213253668
2	82544	2649.2706334701	1.7121305821
2	82657	2651.84278578258	1.71212971337
2	82801	2657.5757215934	1.7121303013
2	82970	2663.94284295705	1.71212977926
2	83154	2668.41593114155	1.71213021852
2	83313	2672.68738416504	1.71213072641
2	83542	2676.79450330503	1.71213059251
2	83690	2683.06607058743	4.03903938213
2	83850	2684.86392567647	1.71212998906
2	83944	2686.55995386506	1.71213108005
2	84074	2688.55998688111	1.7121309157
2	84472	2693.10590817394	1.71213057881
2	84653	2709.27643059785	1.71213041904
2	85158	2722.14373101015	1.71213041626
2	85616	2728.79946862021	1.71212973471
2	86234	2745.54405823485	1.71212967204
2	86642	2766.72863392867	1.71213261306
2	87164	2804.55795043396	1.71213033338
2	88045	2829.16384075548	1.71213003268
2	88226	2832.25131902374	1.7121304019
2	88360	2835.41448938192	1.71212977926
2	88607	2850.04075863269	1.71212971337
2	88754	2852.19317877509	1.71213072641
2	89092	2868.00844879728	1.7121303013
2	89397	2873.51290531784	1.71213135992
2	89564	2876.60914227418	1.71212998906
2	89854	2889.51748528691	1.71213309651
2	90233	2895.592183232	1.71213041626
2	90419	2898.77691410366	1.71213021852
2	90726	2909.79698337365	1.71213008585
2	91118	2918.09682585187	1.71212973471
2	91515	2920.61853089175	1.71212967204
2	91957	2945.86790361539	1.71213108005
2	92129	2950.16100831375	1.71213010906
2	92306	2956.74145495494	1.71213004697
2	92771	2971.89984579662	1.71213041904
2	93228	2989.51796548926	1.71213033338
2	93840	3020.87589900068	1.7121329059
2	93945	3029.26250812214	1.71212977926
2	94209	3037.96504601122	1.7121305821
2	94371	3040.02968784475	1.71212971337
2	94692	3053.43940915207	1.71213122052
2	94798	3055.73618214585	1.71213066997
2	95146	3060.79300531209	1.71212998906
2	95292	3063.74570765692	1.71213059251
2	95519	3067.56051348737	1.71213041626
2	95870	3081.46189263717	1.71213021852
2	96189	3089.2442143265	1.71213071648
2	96513	3097.4232249002	1.71212967204
2	96697	3100.39005088434	1.71213006084
2	97075	3108.92762446931	1.71213021729
2	97530	3118.83948932551	1.71212973471
2	98498	3153.65520579354	1.71213293797
2	98890	3183.02883359224	1.71213041904
2	99198	3190.13263544754	1.71213215791
2	99578	3205.09147800828	1.71212977926
2	99899	3215.27807690983	1.7121305821
2	100010	3218.20887109261	1.71213003268
2	100392	3249.87213728573	1.71213059251
2	100620	3256.06843637447	1.71212971337
2	100858	3259.84040467557	1.71212998906
2	101227	3265.02500964866	1.71213072641
2	101609	3274.13060587224	1.71213256484
2	101721	3276.69531179415	1.71213041626
2	101872	3280.48120359484	1.71213057881
2	102058	3282.97213845932	2.02657420875
2	102516	3291.65361904854	1.71213118653
2	103061	3301.41930213295	3.24926937345
2	103271	3304.59728711685	1.71213004697
2	103576	3309.95106028734	1.71213008585
2	103780	3314.53616091696	1.7121310688
2	104107	3334.79529226367	1.71212967204
2	104343	3352.16935392755	1.71213043397
2	104811	3364.07745096999	1.71213033338
2	105176	3376.763179034	1.71213215791
2	105773	3404.23081690048	1.71213228326
2	105993	3414.93172545281	1.71213003268
2	106241	3436.32901617115	1.71213059251
2	106463	3441.4292794421	1.71213021852
2	106732	3449.29568978329	1.7121305821
2	107402	3462.4766451288	1.71213021729
2	108198	3477.11436212879	1.71213004697
2	108651	3485.96557626628	1.71213006084
2	109226	3501.29651316	1.71213066997
2	109897	3519.05312907053	1.71212967204
2	110189	3526.33824468641	1.71213293797
2	110367	3536.32580370285	1.71213033338
2	110653	3554.07095206663	1.71213041904
2	111022	3566.07665129054	1.71213169072
2	111156	3573.75248681517	1.71213272627
2	111486	3598.37509700919	1.71213003268
3	5475	70.01053327092	327.1402022204
3	10283	243.85069906901	63.059052999363
3	15988	439.4297473512	944.78882210038
3	21065	615.07064828728	27.60743881528
3	26615	791.34708624932	263.98778351225
3	34523	1072.04401041317	1024.489925673
3	40220	1254.40535812166	1516.5419974636
3	47309	1485.06255416847	110.58686083003
3	53239	1679.42176942491	78.871163158971
3	58734	1882.97842796976	514.92035896143
3	65367	2097.46838238147	355.06024611022
3	70849	2279.22355084404	219.99365384201
3	76394	2467.30117484843	150.09583796959
3	82023	2641.57982289103	4.8380097932644
3	88123	2830.53918862184	202.15559115231
3	93687	3019.16376609478	1673.9373214456
3	100151	3245.61712133951	0.00099039589333554
3	106260	3439.66050256691	1820.4906064032
4	5603	74.05147395347	279.4480058418
4	10798	254.6083208581	2050.5422633737
4	16222	443.60953279931	737.28571723727
4	21540	624.03056125714	282.86124650718
4	26873	796.60299958126	344.57094592989
4	32085	979.27004174682	185.95103960552
4	39373	1226.99036276046	126.17551229355
4	44907	1399.68459574328	709.45610490041
4	51073	1599.66019944179	1041.6974628204
4	56025	1773.54787202063	408.05234161433
4	61461	1954.96880673773	8.7242954484946
4	66810	2134.36247973413	161.71908793562
4	72373	2313.74161679546	477.32008038926
4	77474	2489.99620294784	91.664742653797
4	82821	2662.23071317779	2519.6159090937
4	88261	2833.70235960266	935.7305979475
4	93849	3027.55037834288	2590.4944664273
4	99429	3203.37934822902	113.40067866262
4	105621	3402.51868461722	210.5769098202
5	5737	179.43393653915	599.01926869084
5	14428	411.98679848117	880.45986591102
5	21485	623.46385776326	246.39483692207
5	28190	831.33613797489	800.73575765943
5	34416	1066.8328015515	158.87818857192
5	39990	1252.37395886259	938.80284341387
5	45806	1442.55655770219	548.72453627446
5	51897	1636.55427526395	2.5148635789044
5	57315	1817.46124518686	114.82588568046
5	62996	2002.86245648876	52.325162941377
5	68983	2189.48011157387	76.971743073247
5	74278	2367.96270677177	347.47076784156
5	80742	2582.47218505105	102.25039387335
5	87340	2808.49098518424	190.00380882538
5	93062	2987.93379686791	657.03471557081
5	99661	3207.01014218244	78.354665878057
5	105292	3384.20582215866	1400.7008835707
5	111034	3572.0403540889	350.22121098835
6	5790	179.86161810859	734.52721813034
6	11588	358.69331238551	58.377945980485
6	17614	536.63698372904	23.270603533038
6	24138	739.7202469841	418.89073278155
6	29750	927.07153557633	600.58434335195
6	35755	1113.57693577114	561.58822895281
6	41162	1285.76884250659	1187.7372510566
6	48321	1512.86501668944	431.93881641872
6	56202	1775.52953699292	630.80168854464
6	61671	1956.22200820679	596.42458085451
6	68334	2155.19289446283	2667.8677134622
6	72992	2332.40428346152	418.31822197805
6	79420	2547.31263032201	1106.2255182928
6	85002	2720.43160059389	1768.2831398858
6	90024	2893.88005281574	186.23939811917
6	95364	3065.84838307111	247.60340662971
6	101615	3274.98318137789	206.89451117152
6	107248	3461.1704998389	980.70739111344
7	5894	181.57032333605	431.06326617108
7	13905	403.21513607909	259.94642266271
7	19772	589.91643661611	20.995411187917
7	25205	770.86132429946	223.58409463375
7	31978	977.40777320303	199.65853037724
7	37061	1150.7928542866	731.47580630606
7	42494	1330.38296352699	1901.7270908061
7	49031	1535.29742277295	239.86000899371
7	54948	1727.50384386773	148.19401831134
7	59575	1901.35379750809	927.29891303721
7	65908	2110.05723836836	17.651067555517
7	73332	2338.68248330949	2428.2990271901
7	78477	2514.23275734708	319.05456144339
7	84297	2691.62336343472	746.75130850479
7	89221	2871.83166662263	472.96430761454
7	94567	3051.72727793155	89.917778959306
7	100646	3257.85395530886	53.717982372184
7	106022	3432.29229139171	545.70175265588
8	6047	182.03789778225	5.992184312331
8	12197	371.35709885566	172.88055105573
8	19906	592.57134058523	140.84313052753
8	26743	794.07902207185	84.711003163871
8	32219	984.05298979261	114.06529742182
8	37176	1160.02927930267	40.172333715476
8	42839	1339.14687119973	168.01949555038
8	48505	1518.87235917277	149.35552638622
8	54697	1720.44726898286	146.39506898864
8	60112	1912.15488777775	1243.641796522
8	65804	2108.30656953804	207.01430319925
8	71650	2296.53853919975	360.15680083204
8	77586	2491.23434473518	326.66143214783
8	84139	2690.58426273585	1313.4454954254
8	90565	2908.2094505742	159.2512031797
8	96012	3087.53208361002	806.36427841747
8	102728	3293.09108355487	33.708206803364
8	109417	3512.87663886898	3.8037577144417
9	6101	182.30293045403	178.42491931484
9	13456	398.26637574802	806.5702282241
9	21596	624.94554104784	743.88026615118
9	28003	826.26476561309	216.23406048054
9	37946	1175.5407349114	257.65857223401
9	44735	1392.63503970409	137.23602336305
9	50480	1579.05716958057	171.9631186594
9	55783	1758.49112828029	342.90702284801
9	62006	1957.49399544909	1086.7444094392
9	67409	2140.13310933263	275.56760713626
9	73948	2355.18548765348	1267.629757142
9	79314	2545.98044097198	309.87463884818
9	85816	2735.70297980879	706.17406012733
9	91717	2925.05206781323	194.77519694266
9	97159	3111.64102824698	2085.1098382351
9	102339	3290.32349876806	500.46874521587
9	107814	3467.53384437609	168.62423028503
10	6277	183.75002849873	1.71213071648
10	6667	186.79523043039	1.71213008585
10	7855	202.09342202322	1.71213021852
10	10385	243.934640386	1.71213003268
10	12109	369.28868561361	1.71213043397
10	17715	538.3491141453	1.71213041626
10	19904	592.27134519954	2.35490858343
10	20947	610.73217910175	1.71213292304
10	21214	616.78277868918	1.7121304019
10	26327	784.79133371933	1.71212973471
10	27406	808.95766603586	1.71213108005
10	30752	958.90849465177	1.71212973471
10	41683	1308.04256515607	1.71212967204
10	41873	1312.79813829953	1.71212971337
10	43729	1355.19423714925	1.71213008585
10	44066	1366.09410887876	1.7121335728
10	46450	1463.13113948201	1.71213003268
10	48601	1518.95670135347	1.71213021852
10	50054	1567.5826599902	1.71213008585
10	52658	1662.1102679107	1.71213057881
10	59730	1902.77092256581	1.71212971337
10	61874	1956.68093651699	1.71212977926
10	64188	2048.42354663524	1.71213033338
10	65793	2103.63862197769	1.82591770617
10	66031	2111.76936958888	1.71213122052
10	68733	2170.56479533423	1.71212973471
10	69194	2195.61094705588	1.71213004697
10	69337	2201.06320485939	1.71213010906
10	70697	2271.11495666822	1.7121303013
10	72851	2321.82011995613	1.71213108005
10	77977	2494.8714803599	1.71213043397
10	82171	2643.29195329293	1.7121304019
10	86968	2783.0984993896	1.71213004697
10	96953	3104.74193883278	1.71213008585
10	97930	3129.60620686095	1.71213004697
10	100248	3247.32925174141	1.7121304019
10	102910	3294.80321427135	1.71213071648
10	106897	3454.81798764472	1.71212971337
11	6277	183.75002849873	1.71213071648
11	6667	186.79523043039	1.71213008585
11	7855	202.09342202322	1.71213021852
11	10385	243.934640386	1.71213003268
11	12109	369.28868561361	1.71213043397
11	17715	538.3491141453	1.71213041626
11	19904	592.27134519954	2.35490858343
11	20947	610.73217910175	1.71213292304
11	21214	616.78277868918	1.7121304019
11	26327	784.79133371933	1.71212973471
11	27406	808.95766603586	1.71213108005
11	30752	958.90849465177	1.71212973471
11	41683	1308.04256515607	1.71212967204
11	41873	1312.79813829953	1.71212971337
11	43729	1355.19423714925	1.71213008585
11	44066	1366.09410887876	1.7121335728
11	46450	1463.13113948201	1.71213003268
11	48601	1518.95670135347	1.71213021852
11	50054	1567.5826599902	1.71213008585
11	52658	1662.1102679107	1.71213057881
11	59730	1902.77092256581	1.71212971337
11	61874	1956.68093651699	1.71212977926
11	64188	2048.42354663524	1.71213033338
11	65793	2103.63862197769	1.82591770617
11	66031	2111.76936958888	1.71213122052
11	68733	2170.56479533423	1.71212973471
11	69194	2195.61094705588	1.71213004697
11	69337	2201.06320485939	1.71213010906
11	70697	2271.11495666822	1.7121303013
11	72851	2321.82011995613	1.71213108005
11	77977	2494.8714803599	1.71213043397
11	82171	2643.29195329293	1.7121304019
11	86968	2783.0984993896	1.71213004697
11	96953	3104.74193883278	1.71213008585
11	97930	3129.60620686095	1.71213004697
11	100248	3247.32925174141	1.7121304019
11	102910	3294.80321427135	1.71213071648
11	106897	3454.81798764472	1.71212971337
12	6280	183.98339291089	173.34008130249
12	11641	359.62975398817	332.07798501914
12	17798	544.40231222168	219.68888426846
12	23742	720.91340872798	143.71766420843
12	30010	935.07948503515	67.04591651024
12	38971	1201.07068053402	2287.5286917569
12	44500	1388.0242624613	2581.2544433939
12	50239	1572.10311635342	193.34543991861
12	55620	1753.38143525144	201.36039991179
12	60889	1930.22778431945	16.020481885533
12	66263	2123.30703758611	1097.6384969722
12	72855	2322.82702574158	1004.2234697256
12	78293	2508.31336630478	902.77811493729
12	83691	2683.15179568741	684.96962097231
12	89455	2874.89701228512	1330.1841156635
12	94988	3059.08087532303	131.37555166983
12	100702	3258.12827468651	93.686508883501
12	108950	3490.63452390546	128.09567408962
13	6390	185.01466971027	70.548029988015
13	13565	399.77889816025	1416.7543507415
13	18697	573.61212420152	218.95404894298
13	25673	779.77946693042	187.56104329886
13	34063	1045.51898014692	1362.7788592393
13	39320	1225.68336848203	2910.8019038519
13	45627	1439.41771678753	1120.1672711379
13	52087	1648.63398331408	135.20509808993
13	58144	1857.60991383692	1233.6611168142
13	63724	2034.66132247418	319.02790331518
13	70187	2256.26761271543	2010.3991995056
13	76039	2444.79222386174	1166.7381835868
13	82420	2647.558502888	280.94395620511
13	87940	2827.68423572873	44.501135541216
13	94086	3036.25291542912	242.51147692383
13	99779	3213.56594632773	141.11065141837
13	106612	3447.58355920119	271.4840871427
14	6444	185.08310034454	4.1528056268078
14	15684	431.4005311312	472.16908965268
14	20557	604.10827792378	1264.2324786683
14	25562	778.07313015558	1287.3270784526
14	31235	965.26634399302	1421.7016192905
14	38052	1177.09549355599	1391.5288302523
14	43566	1353.4821070634	49.131248147046
14	49889	1565.87052990435	5.7076584243516
14	55190	1743.46052740045	297.70735223669
14	60412	1919.08456703972	344.52747117448
14	67792	2144.60102981763	339.4404854207
14	73523	2343.47957808778	326.36253579237
14	79577	2547.8413753045	1521.7429210562
14	85056	2721.10208310865	111.26502172405
14	90512	2908.0848532878	316.14986229321
14	96786	3103.02980874693	39.292658586229
14	103359	3308.23893020149	169.6289844383
14	108738	3488.72406009006	2725.7709787508
15	6685	187.66806384971	475.74886423653
15	13777	401.8376640841	333.55616893764
15	18934	576.32572688609	568.5518222756
15	24406	758.9524611677	102.35404923417
15	30834	960.79072821316	568.987685657
15	38296	1181.48818771865	441.43499892736
15	44125	1368.10713400481	118.15446395
15	49276	1539.55322221505	912.72947705502
15	54280	1715.08017385043	113.87745063658
15	61618	1956.02730253056	81.025530191493
15	67518	2141.38951061812	95.212682284581
15	74168	2363.02292616657	1377.9127292008
15	79764	2550.76790619741	336.11881863757
15	85235	2722.71276576969	398.84942645757
15	90129	2894.09187788556	509.25283965257
15	95554	3071.46956452203	59.479521707689
15	100941	3262.03370908462	169.40518399909
15	107708	3466.95065057121	308.03565050711
16	6747	188.71320953505	98.752305460803
16	12337	377.30682255551	814.04470620954
16	18752	574.09913527736	1756.2836981937
16	24723	762.8007256286	116.24918708245
16	30194	939.57199566337	155.66953928058
16	35884	1118.43295262944	1330.0107375587
16	42356	1325.59758783865	1437.4073842209
16	47936	1497.15160755157	473.59718229981
16	53725	1698.76743728281	98.313835906315
16	60706	1926.58798352608	1123.0033925404
16	66447	2131.88967829542	1332.3831710214
16	72002	2305.35339930077	469.96816596714
16	80228	2555.49329806276	412.74884010686
16	85519	2728.52721925189	372.4115024316
16	90459	2907.55329781986	1181.3687311122
16	96592	3098.6779208235	156.37574286545
16	101456	3272.4184733074	156.31254972187
16	108501	3484.25344620544	269.80091876314
17	6855	189.66679408645	766.96642586313
17	14268	410.57765470753	955.55481418587
17	19429	585.63082456827	1918.8538453106
17	24670	762.79190365124	298.68513271407
17	30141	939.16216612337	2714.8726870011
17	36177	1126.01587739201	819.96278150989
17	41528	1306.33043548403	24.795094990934
17	47755	1494.77602729753	3426.2889996879
17	53853	1702.67820999091	321.52004614494
17	62518	1970.91011094031	421.37250116571
17	68155	2152.33810009483	1380.3112286012
17	75029	2395.94632306339	209.03284317001
17	80603	2568.57738887135	454.35814346353
17	86031	2743.83192856281	695.48547801445
17	91200	2918.90640121971	351.19831152096
17	96308	3095.71109522816	1280.1685089529
17	104007	3333.08316259163	432.6469647785
17	109739	3517.34099939849	347.40966016243
18	7044	191.62438963463	456.24941838397
18	11909	367.57655517964	40.466335695266
18	18278	565.01666114478	177.65867671661
[...]
27	90796	2911.21866260769	149.69962644586
27	96412	3096.60468230241	255.79688777698
27	101243	3268.61293940155	71.76689525269
27	106974	3456.02045309384	1470.7635944364
28	8173	206.28946960609	149.7319800399
28	14798	416.5697255826	87.248036096959
28	22277	638.40848807083	694.81396255787
28	27689	820.11421737321	144.55829196921
28	33174	1010.69498346224	125.12897068319
28	38480	1183.97489531584	608.56752445723
28	44316	1378.24759596244	355.25335780017
28	50703	1589.5397709758	136.63706877444
28	56605	1780.88179473479	156.13788173558
28	63265	2007.30989539827	444.09348473144
28	69224	2199.35107475033	16.751185394587
28	74574	2377.20069206201	1347.6310114119
28	80851	2589.91328516904	677.1078031612
28	86492	2765.01650131561	193.60523482522
28	91963	2948.44887820469	1090.8912823229
28	97569	3126.87435158449	875.94738079444
28	103412	3308.2724325907	256.26701995129
28	109363	3511.33595764444	264.32717516389
29	8284	207.78514079593	714.49765815752
29	12921	388.53504143151	0.78031162876619
29	23000	674.79712948514	19.008978722242
29	28675	847.08488892412	1231.6350611631
29	35006	1085.38913413213	65.391185634777
29	40897	1274.26534743268	65.82332443871
29	47069	1477.82861227007	1875.5063753349
29	54038	1708.05496807531	298.3362643406
29	61953	1957.30634751606	367.05451749391
29	66394	2131.03213867702	878.03428787431
29	75269	2419.46917209271	229.01784782862
29	80982	2597.73243516207	1809.2889603731
29	87053	2804.487781728	717.70228307056
29	92905	2985.75510621004	441.10138918186
29	99264	3196.19519512931	481.91277750675
29	105182	3378.82956161647	518.85809116244
29	110791	3561.70341246253	538.25260842127
30	8408	208.16992312806	1759.2342881742
30	12682	384.53228340784	1520.8499130229
30	18540	571.14916646777	23.246662531541
30	24275	752.13518979101	816.01805821868
30	32726	995.27129982559	130.63969188818
30	37764	1171.99251220329	821.3198140322
30	45147	1412.3088436035	80.493739908094
30	50938	1594.61868793952	1521.2478053149
30	56796	1784.21240938664	360.86254860307
30	61777	1956.36205036355	1068.3049482499
30	66757	2134.29084215391	392.39444911201
30	72188	2309.62819050674	154.28982127422
30	77712	2491.98339655148	371.92960346043
30	83190	2670.97525343863	165.41873397581
30	88630	2850.48104804868	1303.6424823559
30	95901	3083.31760391986	1860.7495234839
30	101048	3263.31287892225	439.62965549282
30	108279	3478.51821703485	581.82432196156
31	8574	209.96220025637	159.30031056527
31	12570	381.46536653715	3176.6891111553
31	18116	558.84169458923	403.52552673016
31	23876	731.86078408652	79.006749567713
31	29525	909.8219611415	1241.2039608043
31	35374	1091.90499587071	524.3281440451
31	41024	1276.89225684759	182.32475522878
31	46716	1469.68411119069	2071.8735056506
31	52894	1670.77373700042	799.37685077857
31	58275	1865.72973058853	808.95676601824
31	63958	2038.31910109301	82.782034406429
31	69467	2219.09132966412	3192.5781144412
31	75153	2398.04977784289	1143.2428423565
31	81857	2629.16268245141	176.75401555629
31	87177	2804.96955922288	1418.3073603686
31	93363	2996.08356839511	1491.9189730139
31	99024	3188.42050328963	229.12127532265
31	105052	3375.05104687609	229.12640983802
31	110443	3551.85774851154	62.880736030454
32	8633	211.28270624764	194.22662516984
32	14374	410.99225359698	377.34109931087
32	19483	586.19216216572	829.9158645944
32	26419	786.64223979247	664.64240406655
32	31525	967.27918235514	56.465663346921
32	37647	1167.19464253484	75.028052796812
32	43319	1346.89709850411	231.27330176913
32	49522	1553.84519060949	815.50678020491
32	57882	1842.51115170122	403.87751628439
32	63671	2034.45568034639	552.30245512451
32	69704	2236.38963523213	643.97571467476
32	76226	2450.05096369311	38.389911852685
32	82198	2643.52771618624	1426.4851201299
32	87458	2815.0968124486	528.07457378989
32	93116	2988.76304367432	302.82663940336
32	98513	3160.37338758835	434.40895109964
32	104378	3356.99580226515	1649.4273414011
32	110256	3536.14539673963	679.90138719415
33	8686	211.28792657857	1906.1193327413
33	12735	384.57725525111	270.57691385236
33	18485	570.22965055285	1258.1224739041
33	24614	761.33773664682	238.63553661371
33	31289	965.60090025274	18.034825695481
33	37892	1174.71543411756	321.2653755783
33	43619	1353.90557054353	133.0583098066
33	49943	1566.68007437694	195.343618704
33	55402	1747.9599810632	706.65865259161
33	60834	1929.24614401804	631.99399205961
33	66551	2133.11151196101	169.40510096229
33	73118	2335.47503581645	842.32889769051
33	79932	2552.3301178761	192.91726119507
33	86383	2755.13441013618	294.11925657181
33	92796	2977.7319317745	765.47193221402
33	100042	3225.49388627529	318.14678976129
33	105511	3397.66749082781	513.04739978248
34	8923	213.6526092678	471.39845089366
34	12974	388.95461002336	927.77318236409
34	18222	563.33200129941	613.366025258
34	26119	783.07920398462	18.960388673592
34	30602	957.19636491706	20.768130538849
34	37229	1160.45270724831	133.62903937616
34	43263	1346.03884619249	810.81637672522
34	49575	1555.45740260304	461.52571388488
34	55894	1764.45534094651	817.10868148403
34	62761	1984.97252337464	780.43490657733
34	68636	2168.85266559952	12.147257106914
34	73713	2350.15817254979	251.20456022847
34	78749	2526.67617170404	387.93718838602
34	85461	2727.0873388855	116.14668951618
34	90968	2916.38469611716	470.80293412588
34	97376	3117.1273595908	574.19741376538
34	103301	3306.69067741223	51.963459667762
34	108844	3489.80250394634	9.9455258601953
35	9061	215.90258243318	564.49437397657
35	14212	408.90114359269	354.87361980774
35	20742	609.02004617871	17.325434562454
35	25958	782.09085587397	255.7926162084
35	32852	997.60915218496	1209.1549376597
35	38674	1190.08497619911	977.61672560121
35	45387	1427.8716450493	134.66943389119
35	51128	1600.41894818242	59.530361839319
35	56078	1775.1811425911	317.32941682608
35	61514	1955.30657074498	578.34434139005
35	67151	2136.75670156732	95.628253919065
35	72430	2314.84105727933	31.415112792647
35	78696	2525.21955697908	46.657152274604
35	84547	2707.56430017881	479.18460059318
35	92662	2970.18771537758	768.25322987097
35	98731	3181.3167031732	1129.5309465368
35	104431	3358.42640419775	430.80233588703
35	110496	3552.35882164759	250.21366582868
36	9116	216.16653238866	480.91867679422
36	16468	450.53763710309	342.33764845096
36	21700	625.48786631319	803.94340765804
36	27229	807.24553495581	15.431676088711
36	33635	1032.59817640371	50.424197954019
36	39077	1205.22601687368	771.24798371835
36	45859	1442.75502566688	159.43821757686
36	51425	1618.74623720215	818.59862905294
36	60592	1922.78818938304	231.69291511806
36	67681	2143.12779510802	1591.6650432574
36	72723	2320.10798887608	13.787726862668
36	78131	2498.96292476957	90.023999313869
36	83748	2684.84782278501	1620.8985316503
36	91835	2944.15577253534	152.51475689591
36	98189	3149.11072149359	90.240624401251
36	103789	3320.93491253969	353.69936596263
36	109630	3515.68637846239	302.57329800769
37	9300	218.15705719677	122.31642085179
37	14072	404.98776582681	265.32149017528
37	20141	594.70476062655	628.14590902225
37	26356	785.2272215428	116.62887500045
37	30655	958.02827413734	734.09118991359
37	36706	1142.21129527635	166.82401588684
37	42066	1321.5450985947	174.07507951261
37	47630	1493.95260178068	1061.8638625588
37	53405	1685.4829087606	330.94066284093
37	59133	1893.74771067154	61.707461224937
37	66704	2133.97031456179	1955.6351333975
37	72133	2309.09594997848	425.47433980196
37	80371	2564.44343932648	416.36137867118
37	85925	2742.3710541254	884.74593285884
37	91362	2920.36689061326	681.14123956474
37	96972	3107.21549425202	360.30943076958
37	101878	3280.94556425057	53.415954713753
37	107195	3460.76451491151	237.02504714557
38	9353	218.22711367057	743.32452565861
38	15574	429.95259349854	48.943978505482
38	21378	620.9405436607	1883.4971150273
38	27009	799.82824280112	338.77999776782
38	32619	993.31695559075	1251.6808171192
38	38619	1189.0176271629	32.028041748921
38	44071	1367.32691846448	317.84857612958
38	49410	1543.90162061997	138.04983815855
38	55512	1750.61677019281	222.32606589458
38	61294	1945.76711827125	1729.4153765937
38	70340	2258.60490852116	1038.1495574674
38	75750	2439.24443458449	447.84135239396
38	81406	2618.55051333589	1204.5008155077
38	87567	2821.28576850553	292.59054197915
38	93472	3011.7168699422	1132.4789233882
38	99211	3195.79534064286	62.298088084329
38	104834	3367.37612223544	78.807032935763
38	110678	3556.57011412203	534.02030363134
39	9537	220.42406996201	141.67969359897
39	15280	426.39187152719	187.1401508084
39	20795	609.18245807639	98.120858082105
39	26064	782.50929974674	1872.4166390962
39	31742	969.0596955412	343.68298153488
39	37464	1164.88098864183	24.167187533577
39	42681	1337.83633001633	358.79730524029
39	48926	1534.36246461246	993.31519288408
39	54227	1714.32894816807	148.69911100057
39	59875	1907.38578777825	748.99323496867
39	67734	2143.18636075335	305.05225990969
39	73466	2342.15582167519	1670.3376765271
39	79817	2550.80896760739	121.8715139539
39	85645	2729.83394993743	326.52931398301
39	91415	2920.40685114999	693.73773266786
39	97323	3116.54710920811	493.9491925552
39	104940	3369.44926275907	954.49349269555
39	110898	3564.36451959982	284.92687694284
40	9591	220.76703035566	185.86166933324
40	15871	434.45408581567	1148.3085456636
40	21991	628.41023806629	728.00913892624
40	27115	801.85586066889	1547.5603785887
40	32377	987.36848798507	73.235804514693
40	38727	1190.24214751812	2166.2466389017
40	44447	1387.21921608046	75.686988612256
40	50372	1576.05847254025	766.73063585283
40	59386	1898.22757480332	60.794115337632
40	67341	2138.54378148836	191.99753175932
40	72556	2315.590169078	2634.791262406
40	79261	2545.84324236505	487.45844617626
40	86755	2771.6531652056	1449.8932362746
40	92547	2965.87367881597	91.665597981356
40	98622	3169.20041556614	292.86302831765
40	105404	3392.56798678188	539.86450855773
40	111214	3575.63336752295	1028.0721941407
41	9782	223.81277451836	341.10308213977
41	15176	425.2181904914	459.35796063013
41	22651	661.42031830817	811.69477816982
41	29127	876.87448286056	175.34568295003
41	34302	1057.12158507895	254.91348578893
41	41424	1303.96930699267	44.055869325392
41	47122	1478.50123786646	0.91529114910498
41	52537	1661.76771031161	507.11035917566
41	57581	1833.00852517799	456.62218494156
41	63050	2004.24004146411	10.853288133148
41	68871	2183.90055354271	635.34172039036
41	74059	2359.2505255847	19.457173306645
41	78992	2532.7881122104	211.54647507393
41	84675	2711.43219672076	378.41386099766
41	89861	2891.34788487888	119.78406849356
41	96730	3101.98093563888	596.36604472299
41	102118	3285.45441381221	140.05942798629
41	107083	3458.53013667151	285.40188930954
42	9901	226.50315978545	88.358126637134
42	14932	418.98216131683	139.86027143424
42	21247	618.85145070151	727.41162560568
42	28243	831.50922459273	516.29026946705
42	33814	1035.57583306358	3694.6317697342
42	40167	1254.20673100868	397.40521427053
42	45515	1431.75390966317	2114.9598339488
42	51579	1621.5692206584	2141.1384022451
42	60359	1919.06255055466	340.35802848316
42	65135	2094.55850507102	199.2743586288
42	70902	2279.50001750291	84.178746141319
42	77290	2487.29998841214	1053.8157485448
42	83374	2675.08237271252	134.11154573997
42	89652	2887.8053521904	549.44981347482
42	95173	3062.03357706441	543.35334412781
42	100275	3248.16000669322	135.44291492118
42	106126	3434.61688557864	972.54552465732
43	9955	227.05120985653	192.74231711358
43	17062	485.37817704186	469.60108329404
43	23107	679.59509131591	127.44774705205
43	29074	875.76886375935	446.87788556477
43	34836	1079.58877667821	1022.3466361783
43	40276	1255.5712612064	398.54657035805
43	46239	1454.44528396228	354.19956739634
43	52484	1660.96975590452	814.24105942108
43	58433	1868.49212469335	104.93842062209
43	64470	2075.52931745678	712.0337951994
43	70393	2258.6140033078	309.54553436151
43	75986	2444.7373423436	574.11916967643
43	83319	2673.8632215942	167.64733606207
43	89599	2886.27222077525	181.93809491392
43	95660	3073.26204684399	20.323578278927
43	102232	3289.94148786201	151.07820200013
43	107597	3465.8626054931	614.56098281422
44	10124	242.22251035332	42.212230947037
44	16761	459.79126970947	851.28290808518
44	22755	663.98622545747	447.9957739255
44	28435	839.08598990813	1089.8210187398
44	33582	1032.50029138621	173.2596117936
44	39664	1234.20680562474	1444.0910412175
44	46348	1461.41900944933	49.992825944729
44	52947	1672.44351110766	1417.0769651235
44	58328	1866.92791253888	233.79966849447
44	64337	2058.75071747458	156.97691788716
44	70056	2245.18980598099	123.64917694209
44	75803	2439.4822916196	1472.3682758281
44	81702	2625.88494178967	1207.0793669953
44	87836	2827.4517107228	250.95214994855
44	94269	3039.18431537258	1002.6953679429
44	99905	3216.49674105993	260.49639825595
44	105889	3413.21959542013	470.2082809023
44	111384	3596.66296697651	150.06905420168
45	10177	242.92141443365	316.84225455532
45	15512	428.77849304627	461.10279242858
45	20504	602.68033727859	265.57519777717
45	25615	778.29719635625	475.172065345
45	30888	961.53693093255	789.77199306513
45	36367	1134.6308313993	101.30526702112
45	41583	1307.87331110347	89.090089337213
45	47461	1487.56489270887	12.615893661398
45	52380	1660.39813733189	1.3918800598188
45	57477	1832.67678421347	110.25015202946
45	63618	2033.39845223958	681.98949903005
45	69576	2232.42052843163	803.95955697005
45	77420	2489.37164388398	277.36579852574
45	84243	2691.39377759513	599.99346671879
45	89917	2892.19350430299	1319.0371059463
45	96255	3094.17152072625	113.12431234585
45	101750	3278.76907301603	173.90817921097
45	106796	3454.01708057264	340.48860747571
46	10230	243.76806038598	876.16356195469
46	15123	424.82230047845	137.0557467858
46	21936	627.78348456944	164.91858352718
46	27525	815.01011149412	575.48658665513
46	32431	988.7648268833	56.194799248721
46	37408	1163.75740780933	169.25624684259
46	43210	1345.97609805244	1703.7611434701
46	48692	1530.31711857253	403.4909104707
46	54511	1717.6317778808	716.6002077463
46	59257	1895.4769709084	866.72859521292
46	64837	2087.60067077809	2869.7169595132
46	70712	2272.13423837847	195.85002292332
46	78422	2513.66784157744	48.146101874721
46	83946	2686.84785596541	573.63741890186
46	88768	2860.23283734752	120.5023784004
46	95310	3065.03427042232	154.03673050218
46	100410	3252.16147713819	660.32960366601
46	106491	3441.8577612952	311.43087474488
47	10566	246.5863528777	113.1484052609
47	17348	492.67443408208	179.9084721212
47	23372	705.09099794315	435.29094677314
47	31180	964.7688469918	762.96643489951
47	36896	1146.56566109079	391.43930628308
47	43916	1364.38197530596	24.776182777837
47	52327	1659.06172324579	370.89685661555
47	57424	1831.29036397435	1501.3383556443
47	63487	2019.99180914144	1717.3858454651
47	69358	2210.14149151029	297.1748368537
47	74842	2386.31006594558	565.29839061672
47	80495	2566.31441357201	1396.2824136405
47	85978	2743.73409119457	590.93835412432
47	91307	2920.09119925855	251.97493971364
47	98027	3138.4618925602	296.29721811403
47	103652	3312.82402984816	901.4908240038
47	108680	3487.06654152945	605.90338437986
48	10691	252.18826877135	1691.7874810349
48	16657	458.2750086542	183.31126178188
48	22520	649.71276293604	267.02264261464
48	27950	826.07472383341	119.77307531179
48	33953	1040.37604470839	335.97217092858
48	39189	1212.25077366752	211.75424442914
48	44679	1391.01997942191	190.03294700687
48	49762	1562.90583741546	1570.403354642
48	55243	1743.65447679326	2665.8419478615
48	61189	1942.83266813625	555.20772079395
48	66151	2116.59754952974	599.92473693014
48	71195	2288.18559553696	300.9993627926
48	77112	2485.33879605219	173.45278541137
48	82874	2663.93688299684	225.00565467119
48	89168	2871.80077395792	1037.7930818087
48	94461	3047.0672468457	979.46199927348
48	102286	3290.30878605802	253.16154315122
48	107543	3465.00997030081	1701.4713937216
49	10934	269.36551905261	112.5137151812
49	16354	447.29370843857	38.010477507485
49	22171	637.18321248135	902.51148769282
49	27470	813.94363106358	126.08516200298
49	33117	1009.32209417649	1167.5856796782
49	38240	1180.77944701277	798.6210707917
49	43798	1357.01428248824	277.02221992197
49	50534	1579.95495183737	46.430694938609
49	56740	1782.64892148863	539.88497172165
49	62646	1973.41847819718	189.16288073813
49	68208	2153.7726023049	983.93293438953
49	73172	2336.54974406355	946.75824488711
49	78643	2525.03799299572	1607.0392350918
49	84893	2718.04786148591	1458.1853409722
49	91146	2918.27867509418	403.28081504607
49	97106	3111.47509113953	155.29523773079
49	102005	3282.70536648495	7.7715897145388
49	109257	3507.4707637021	23.115957262884
50	10987	269.39058774998	661.84902975302
50	17218	489.54406726963	362.41682100129
50	23501	710.2143932338	792.05888486376
50	29345	906.44609417706	998.5711641929
50	35059	1085.50559807568	1151.4491876399
50	40656	1263.80244467663	483.14065835422
50	45751	1441.44291851321	1477.0607021745
50	51715	1631.15287150596	891.1776725761
50	57206	1809.91905403006	2684.5924178931
50	64208	2053.23523548044	102.83874880619
50	69757	2236.50635046032	1370.9239037821
50	75585	2432.71918299403	491.31937509144
50	81216	2605.27993225478	278.42610342785
50	88877	2866.00352293919	159.73380892743
50	94695	3054.02405147588	403.31230392842
50	103896	3326.05307769596	832.33685606407
50	109126	3499.58438249003	1713.8817847224
51	11040	269.74016950977	948.06176442478
51	16114	441.68847453973	556.18041429479
51	21008	614.61498840229	293.52035606761
51	27284	808.82693392132	1100.8476671784
51	33468	1018.69243515112	1003.2266924183
51	39558	1232.24143913784	384.52770600709
51	46661	1468.09083108849	260.86815831923
51	56311	1776.71558743807	667.09418399421
51	61408	1953.81422922517	17.310365077131
51	68441	2156.85264919087	1072.0082032567
51	75532	2432.30804164121	69.625809778585
51	81510	2619.56119747559	1164.7401784656
51	87620	2822.60415605913	1304.4022000452
51	94825	3056.8329676748	288.03805317088
51	102392	3290.64940361616	316.33954232961
51	107304	3462.20962766442	1072.9217799649
52	11261	278.91266840532	81.358131397571
52	16604	458.0455059038	327.04217960459
52	22224	637.85564419039	159.14744374452
52	28915	859.82917033186	484.43933513511
52	34709	1078.15397542519	8.3287424292987
52	42246	1323.66887494129	145.22521557331
52	48081	1504.00124093739	1396.6510557721
52	53131	1676.70418658633	1016.5074425661
52	58787	1883.65411088197	3184.8090147104
52	65082	2093.6934342331	18.023336632283
52	71083	2283.83361888117	237.9355828342
52	76341	2466.39421143295	146.32785800669
52	86648	2768.95832394191	2013.115093863
52	92017	2949.41151555934	662.68265145385
52	97830	3129.09681422811	745.65837379867
52	103063	3302.25785626504	1568.1756419077
52	108443	3482.81011248028	360.52012644465
53	11370	286.64340422504	1513.4916972206
53	16953	468.40026843348	810.17644300249
53	22888	667.80352998248	80.616427996037
53	28488	840.09368533851	1781.237266195
53	33362	1016.27584549336	30.320371989051
53	39828	1240.01083221093	684.76559842021
53	45278	1420.69860354674	590.06104962167
53	51316	1612.52357464816	94.369204642511
53	56977	1786.5144315363	196.74990228966
53	62411	1965.23830961476	458.12283407425
53	68028	2146.4302684628	141.64168331327
53	74521	2375.56060774188	9.3591520121036
53	79876	2551.6038282488	79.465431140969
53	86270	2748.85078397429	156.32563765711
53	92391	2963.89676474967	868.10712473121
53	98136	3149.06212023167	135.70281110647
53	104135	3337.02522421139	41.919833078067
53	109524	3514.55694660063	300.98460431038
54	11479	306.45305640055	58.840929079237
54	17483	506.66244969985	153.20788565694
54	23241	697.78914463415	1467.207530659
54	29292	905.81598795452	128.08306552034
54	35236	1088.34938205711	214.10926916741
54	40769	1269.75591415044	170.29673839409
54	46472	1463.35969664538	1088.2550424872
54	52140	1649.20756944215	2795.4694379718
54	58013	1850.08348764548	66.656358011281
54	64077	2046.71141630186	28.917512010753
54	69936	2238.29100625847	970.0230009806
54	75398	2425.13020394986	673.43179089485
54	81353	2617.410192911	275.71086392194
54	87000	2802.84582010058	981.52221871053
54	93009	2987.80583515588	1134.0688681806
54	98784	3181.58818777523	328.01990209554
54	104695	3362.36532063661	345.69545833023
54	110203	3534.61367336947	96.319715470434

