version 3
run N50-25-20260518-02:26:53-159863
attr configname N50
attr datetime 20260518-02:26:53
attr datetimef 20260518-022653
attr experiment N50
attr inifile omnetpp.ini
attr iterationvars "$0=\"avg\""
attr iterationvarsd avg
attr iterationvarsf avg-
attr measurement "$0=\"avg\""
attr network test2.LoRaNetworkTest
attr processid 159863
attr repetition 25
attr replication #25
attr resultdir results
attr runnumber 25
attr seedset 25
config extends General
config **.numPatients 50
config network test2.LoRaNetworkTest
config sim-time-limit 1h
config warmup-period 60s
config simtime-resolution -11
config repeat 30
config rng-class cMersenneTwister
config record-eventlog false
config **.numPatients 20
config **.HospitalServer.app[0].queueLength:vector.vector-recording true
config **.HospitalServer.app[0].urgentWaitTime:vector.vector-recording true
config **.HospitalServer.app[0].normalWaitTime:vector.vector-recording true
config **.HospitalServer.app[0].urgentEndToEndDelay:vector.vector-recording true
config **.HospitalServer.app[0].normalEndToEndDelay:vector.vector-recording true
config **.loRaNodes[*].app[0].emergencyVariate:vector.vector-recording true
config **.vector-recording false
config **.loRaNodes[0].**.initialX "300m + uniform(-10m, 10m)"
config **.loRaNodes[0].**.initialY "250m + uniform(-8m, 8m)"
config **.loRaNodes[1].**.initialX "450m + uniform(-10m, 10m)"
config **.loRaNodes[1].**.initialY "250m + uniform(-8m, 8m)"
config **.loRaNodes[2].**.initialX "600m + uniform(-10m, 10m)"
config **.loRaNodes[2].**.initialY "250m + uniform(-8m, 8m)"
config **.loRaNodes[3].**.initialX "750m + uniform(-10m, 10m)"
config **.loRaNodes[3].**.initialY "250m + uniform(-8m, 8m)"
config **.loRaNodes[4].**.initialX "900m + uniform(-10m, 10m)"
config **.loRaNodes[4].**.initialY "250m + uniform(-8m, 8m)"
config **.loRaNodes[5].**.initialX "1050m + uniform(-10m, 10m)"
config **.loRaNodes[5].**.initialY "250m + uniform(-8m, 8m)"
config **.loRaNodes[6].**.initialX "1200m + uniform(-10m, 10m)"
config **.loRaNodes[6].**.initialY "250m + uniform(-8m, 8m)"
config **.loRaNodes[7].**.initialX "1350m + uniform(-10m, 10m)"
config **.loRaNodes[7].**.initialY "250m + uniform(-8m, 8m)"
config **.loRaNodes[8].**.initialX "1500m + uniform(-10m, 10m)"
config **.loRaNodes[8].**.initialY "250m + uniform(-8m, 8m)"
config **.loRaNodes[9].**.initialX "1650m + uniform(-10m, 10m)"
config **.loRaNodes[9].**.initialY "250m + uniform(-8m, 8m)"
config **.loRaNodes[10].**.initialX "300m + uniform(-10m, 10m)"
config **.loRaNodes[10].**.initialY "370m + uniform(-8m, 8m)"
config **.loRaNodes[11].**.initialX "450m + uniform(-10m, 10m)"
config **.loRaNodes[11].**.initialY "370m + uniform(-8m, 8m)"
config **.loRaNodes[12].**.initialX "600m + uniform(-10m, 10m)"
config **.loRaNodes[12].**.initialY "370m + uniform(-8m, 8m)"
config **.loRaNodes[13].**.initialX "750m + uniform(-10m, 10m)"
config **.loRaNodes[13].**.initialY "370m + uniform(-8m, 8m)"
config **.loRaNodes[14].**.initialX "900m + uniform(-10m, 10m)"
config **.loRaNodes[14].**.initialY "370m + uniform(-8m, 8m)"
config **.loRaNodes[15].**.initialX "1050m + uniform(-10m, 10m)"
config **.loRaNodes[15].**.initialY "370m + uniform(-8m, 8m)"
config **.loRaNodes[16].**.initialX "1200m + uniform(-10m, 10m)"
config **.loRaNodes[16].**.initialY "370m + uniform(-8m, 8m)"
config **.loRaNodes[17].**.initialX "1350m + uniform(-10m, 10m)"
config **.loRaNodes[17].**.initialY "370m + uniform(-8m, 8m)"
config **.loRaNodes[18].**.initialX "1500m + uniform(-10m, 10m)"
config **.loRaNodes[18].**.initialY "370m + uniform(-8m, 8m)"
config **.loRaNodes[19].**.initialX "1650m + uniform(-10m, 10m)"
config **.loRaNodes[19].**.initialY "370m + uniform(-8m, 8m)"
config **.loRaNodes[20].**.initialX "300m + uniform(-10m, 10m)"
config **.loRaNodes[20].**.initialY "490m + uniform(-8m, 8m)"
config **.loRaNodes[21].**.initialX "450m + uniform(-10m, 10m)"
config **.loRaNodes[21].**.initialY "490m + uniform(-8m, 8m)"
config **.loRaNodes[22].**.initialX "600m + uniform(-10m, 10m)"
config **.loRaNodes[22].**.initialY "490m + uniform(-8m, 8m)"
config **.loRaNodes[23].**.initialX "750m + uniform(-10m, 10m)"
config **.loRaNodes[23].**.initialY "490m + uniform(-8m, 8m)"
config **.loRaNodes[24].**.initialX "900m + uniform(-10m, 10m)"
config **.loRaNodes[24].**.initialY "490m + uniform(-8m, 8m)"
config **.loRaNodes[25].**.initialX "1050m + uniform(-10m, 10m)"
config **.loRaNodes[25].**.initialY "490m + uniform(-8m, 8m)"
config **.loRaNodes[26].**.initialX "1200m + uniform(-10m, 10m)"
config **.loRaNodes[26].**.initialY "490m + uniform(-8m, 8m)"
config **.loRaNodes[27].**.initialX "1350m + uniform(-10m, 10m)"
config **.loRaNodes[27].**.initialY "490m + uniform(-8m, 8m)"
config **.loRaNodes[28].**.initialX "1500m + uniform(-10m, 10m)"
config **.loRaNodes[28].**.initialY "490m + uniform(-8m, 8m)"
config **.loRaNodes[29].**.initialX "1650m + uniform(-10m, 10m)"
config **.loRaNodes[29].**.initialY "490m + uniform(-8m, 8m)"
config **.loRaNodes[30].**.initialX "300m + uniform(-10m, 10m)"
config **.loRaNodes[30].**.initialY "610m + uniform(-8m, 8m)"
config **.loRaNodes[31].**.initialX "450m + uniform(-10m, 10m)"
config **.loRaNodes[31].**.initialY "610m + uniform(-8m, 8m)"
config **.loRaNodes[32].**.initialX "600m + uniform(-10m, 10m)"
config **.loRaNodes[32].**.initialY "610m + uniform(-8m, 8m)"
config **.loRaNodes[33].**.initialX "750m + uniform(-10m, 10m)"
config **.loRaNodes[33].**.initialY "610m + uniform(-8m, 8m)"
config **.loRaNodes[34].**.initialX "900m + uniform(-10m, 10m)"
config **.loRaNodes[34].**.initialY "610m + uniform(-8m, 8m)"
config **.loRaNodes[35].**.initialX "1050m + uniform(-10m, 10m)"
config **.loRaNodes[35].**.initialY "610m + uniform(-8m, 8m)"
config **.loRaNodes[36].**.initialX "1200m + uniform(-10m, 10m)"
config **.loRaNodes[36].**.initialY "610m + uniform(-8m, 8m)"
config **.loRaNodes[37].**.initialX "1350m + uniform(-10m, 10m)"
config **.loRaNodes[37].**.initialY "610m + uniform(-8m, 8m)"
config **.loRaNodes[38].**.initialX "1500m + uniform(-10m, 10m)"
config **.loRaNodes[38].**.initialY "610m + uniform(-8m, 8m)"
config **.loRaNodes[39].**.initialX "1650m + uniform(-10m, 10m)"
config **.loRaNodes[39].**.initialY "610m + uniform(-8m, 8m)"
config **.loRaNodes[40].**.initialX "300m + uniform(-10m, 10m)"
config **.loRaNodes[40].**.initialY "730m + uniform(-8m, 8m)"
config **.loRaNodes[41].**.initialX "450m + uniform(-10m, 10m)"
config **.loRaNodes[41].**.initialY "730m + uniform(-8m, 8m)"
config **.loRaNodes[42].**.initialX "600m + uniform(-10m, 10m)"
config **.loRaNodes[42].**.initialY "730m + uniform(-8m, 8m)"
config **.loRaNodes[43].**.initialX "750m + uniform(-10m, 10m)"
config **.loRaNodes[43].**.initialY "730m + uniform(-8m, 8m)"
config **.loRaNodes[44].**.initialX "900m + uniform(-10m, 10m)"
config **.loRaNodes[44].**.initialY "730m + uniform(-8m, 8m)"
config **.loRaNodes[45].**.initialX "1050m + uniform(-10m, 10m)"
config **.loRaNodes[45].**.initialY "730m + uniform(-8m, 8m)"
config **.loRaNodes[46].**.initialX "1200m + uniform(-10m, 10m)"
config **.loRaNodes[46].**.initialY "730m + uniform(-8m, 8m)"
config **.loRaNodes[47].**.initialX "1350m + uniform(-10m, 10m)"
config **.loRaNodes[47].**.initialY "730m + uniform(-8m, 8m)"
config **.loRaNodes[48].**.initialX "1500m + uniform(-10m, 10m)"
config **.loRaNodes[48].**.initialY "730m + uniform(-8m, 8m)"
config **.loRaNodes[49].**.initialX "1650m + uniform(-10m, 10m)"
config **.loRaNodes[49].**.initialY "730m + uniform(-8m, 8m)"
config **.loRaNodes[50].**.initialX "300m + uniform(-10m, 10m)"
config **.loRaNodes[50].**.initialY "850m + uniform(-8m, 8m)"
config **.loRaNodes[51].**.initialX "450m + uniform(-10m, 10m)"
config **.loRaNodes[51].**.initialY "850m + uniform(-8m, 8m)"
config **.loRaNodes[52].**.initialX "600m + uniform(-10m, 10m)"
config **.loRaNodes[52].**.initialY "850m + uniform(-8m, 8m)"
config **.loRaNodes[53].**.initialX "750m + uniform(-10m, 10m)"
config **.loRaNodes[53].**.initialY "850m + uniform(-8m, 8m)"
config **.loRaNodes[54].**.initialX "900m + uniform(-10m, 10m)"
config **.loRaNodes[54].**.initialY "850m + uniform(-8m, 8m)"
config **.loRaNodes[55].**.initialX "1050m + uniform(-10m, 10m)"
config **.loRaNodes[55].**.initialY "850m + uniform(-8m, 8m)"
config **.loRaNodes[56].**.initialX "1200m + uniform(-10m, 10m)"
config **.loRaNodes[56].**.initialY "850m + uniform(-8m, 8m)"
config **.loRaNodes[57].**.initialX "1350m + uniform(-10m, 10m)"
config **.loRaNodes[57].**.initialY "850m + uniform(-8m, 8m)"
config **.loRaNodes[58].**.initialX "1500m + uniform(-10m, 10m)"
config **.loRaNodes[58].**.initialY "850m + uniform(-8m, 8m)"
config **.loRaNodes[59].**.initialX "1650m + uniform(-10m, 10m)"
config **.loRaNodes[59].**.initialY "850m + uniform(-8m, 8m)"
config **.loRaNodes[60].**.initialX "300m + uniform(-10m, 10m)"
config **.loRaNodes[60].**.initialY "970m + uniform(-8m, 8m)"
config **.loRaNodes[61].**.initialX "450m + uniform(-10m, 10m)"
config **.loRaNodes[61].**.initialY "970m + uniform(-8m, 8m)"
config **.loRaNodes[62].**.initialX "600m + uniform(-10m, 10m)"
config **.loRaNodes[62].**.initialY "970m + uniform(-8m, 8m)"
config **.loRaNodes[63].**.initialX "750m + uniform(-10m, 10m)"
config **.loRaNodes[63].**.initialY "970m + uniform(-8m, 8m)"
config **.loRaNodes[64].**.initialX "900m + uniform(-10m, 10m)"
config **.loRaNodes[64].**.initialY "970m + uniform(-8m, 8m)"
config **.loRaNodes[65].**.initialX "1050m + uniform(-10m, 10m)"
config **.loRaNodes[65].**.initialY "970m + uniform(-8m, 8m)"
config **.loRaNodes[66].**.initialX "1200m + uniform(-10m, 10m)"
config **.loRaNodes[66].**.initialY "970m + uniform(-8m, 8m)"
config **.loRaNodes[67].**.initialX "1350m + uniform(-10m, 10m)"
config **.loRaNodes[67].**.initialY "970m + uniform(-8m, 8m)"
config **.loRaNodes[68].**.initialX "1500m + uniform(-10m, 10m)"
config **.loRaNodes[68].**.initialY "970m + uniform(-8m, 8m)"
config **.loRaNodes[69].**.initialX "1650m + uniform(-10m, 10m)"
config **.loRaNodes[69].**.initialY "970m + uniform(-8m, 8m)"
config **.loRaNodes[70].**.initialX "300m + uniform(-10m, 10m)"
config **.loRaNodes[70].**.initialY "1090m + uniform(-8m, 8m)"
config **.loRaNodes[71].**.initialX "450m + uniform(-10m, 10m)"
config **.loRaNodes[71].**.initialY "1090m + uniform(-8m, 8m)"
config **.loRaNodes[72].**.initialX "600m + uniform(-10m, 10m)"
config **.loRaNodes[72].**.initialY "1090m + uniform(-8m, 8m)"
config **.loRaNodes[73].**.initialX "750m + uniform(-10m, 10m)"
config **.loRaNodes[73].**.initialY "1090m + uniform(-8m, 8m)"
config **.loRaNodes[74].**.initialX "900m + uniform(-10m, 10m)"
config **.loRaNodes[74].**.initialY "1090m + uniform(-8m, 8m)"
config **.HospitalServer.numApps 1
config **.HospitalServer.app[0].typename HospitalServerApp
config **.HospitalServer.app[0].destPort 2000
config **.HospitalServer.app[0].localPort 1000
config **.HospitalServer.app[0].adrMethod "\"avg\""
config **.HospitalServer.**.evaluateADRinServer true
config **.HospitalServer.app[0].queueSize 50
config **.HospitalServer.app[0].expo_rate_lambda 0.83
config **.loRaGateway.numUdpApps 1
config **.loRaGateway.packetForwarder.localPort 2000
config **.loRaGateway.packetForwarder.destPort 1000
config **.loRaGateway.packetForwarder.destAddresses "\"HospitalServer\""
config **.loRaGateway.**.initFromDisplayString false
config **.loRaGateway.**.initialX 544.00m
config **.loRaGateway.**.initialY 544.00m
config **.loRaNodes[*].numApps 1
config **.loRaNodes[*].app[0].typename PatientSensorApp
config **.loRaNodes[*].app[0].expo_rate_lambda 0.00175
config **.loRaNodes[*].app[0].emergencyThreshold 50
config **.loRaNodes[*].**.timeToFirstPacket exponential(24s)
config **.loRaNodes[*].**.timeToNextPacket exponential(24s)
config **.loRaNodes[*].**.numberOfPacketsToSend 0
config **.loRaNodes[*].**initialLoRaSF 12
config **.loRaNodes[*].**initialLoRaTP 14dBm
config **.loRaNodes[*].**initialLoRaBW "125 kHz"
config **.loRaNodes[*].**initialLoRaCR 4
config **.loRaNodes[*].**.initFromDisplayString false
config **.loRaNodes[*].**.evaluateADRinNode true
config **.loRaNodes[*].LoRaNic.radio.energyConsumer.typename LoRaEnergyConsumer
config **.loRaNodes[*].**.energySourceModule "\"^.IdealEpEnergyStorage\""
config **.loRaNodes[*].LoRaNic.radio.energyConsumer.configFile "xmldoc(\"energyConsumptionParam.xml\")"
config **.maxTransmissionDuration 4s
config **.energyDetection -110dBm
config **.radio.radioMediumModule "\"LoRaMedium\""
config **.minInterferenceTime 0s
config **.constraintAreaMinX 0m
config **.constraintAreaMinY 0m
config **.constraintAreaMinZ 0m
config **.constraintAreaMaxZ 0m
config **.constraintAreaMaxX 3000.0m
config **.constraintAreaMaxY 3000.0m

vector 0 LoRaNetworkTest.loRaNodes[15].app[0] emergencyVariate:vector ETV
attr recordingmode vector
attr title "Exponential variate samples"
vector 1 LoRaNetworkTest.HospitalServer.app[0] queueLength:vector ETV
attr recordingmode vector
attr title "Total queue length"
vector 2 LoRaNetworkTest.HospitalServer.app[0] normalWaitTime:vector ETV
attr recordingmode vector
attr title "Normal wait time (s)"
vector 3 LoRaNetworkTest.HospitalServer.app[0] normalEndToEndDelay:vector ETV
attr recordingmode vector
attr title "Normal end-to-end delay (s)"
vector 4 LoRaNetworkTest.loRaNodes[38].app[0] emergencyVariate:vector ETV
attr recordingmode vector
attr title "Exponential variate samples"
vector 5 LoRaNetworkTest.loRaNodes[35].app[0] emergencyVariate:vector ETV
attr recordingmode vector
attr title "Exponential variate samples"
vector 6 LoRaNetworkTest.loRaNodes[1].app[0] emergencyVariate:vector ETV
attr recordingmode vector
attr title "Exponential variate samples"
vector 7 LoRaNetworkTest.loRaNodes[42].app[0] emergencyVariate:vector ETV
attr recordingmode vector
attr title "Exponential variate samples"
vector 8 LoRaNetworkTest.loRaNodes[7].app[0] emergencyVariate:vector ETV
attr recordingmode vector
attr title "Exponential variate samples"
vector 9 LoRaNetworkTest.loRaNodes[9].app[0] emergencyVariate:vector ETV
attr recordingmode vector
attr title "Exponential variate samples"
vector 10 LoRaNetworkTest.loRaNodes[14].app[0] emergencyVariate:vector ETV
attr recordingmode vector
attr title "Exponential variate samples"
vector 11 LoRaNetworkTest.loRaNodes[5].app[0] emergencyVariate:vector ETV
attr recordingmode vector
attr title "Exponential variate samples"
vector 12 LoRaNetworkTest.loRaNodes[49].app[0] emergencyVariate:vector ETV
attr recordingmode vector
attr title "Exponential variate samples"
vector 13 LoRaNetworkTest.loRaNodes[23].app[0] emergencyVariate:vector ETV
attr recordingmode vector
attr title "Exponential variate samples"
vector 14 LoRaNetworkTest.loRaNodes[31].app[0] emergencyVariate:vector ETV
attr recordingmode vector
attr title "Exponential variate samples"
vector 15 LoRaNetworkTest.loRaNodes[0].app[0] emergencyVariate:vector ETV
attr recordingmode vector
attr title "Exponential variate samples"
vector 16 LoRaNetworkTest.loRaNodes[18].app[0] emergencyVariate:vector ETV
attr recordingmode vector
attr title "Exponential variate samples"
vector 17 LoRaNetworkTest.loRaNodes[26].app[0] emergencyVariate:vector ETV
attr recordingmode vector
attr title "Exponential variate samples"
vector 18 LoRaNetworkTest.loRaNodes[41].app[0] emergencyVariate:vector ETV
attr recordingmode vector
attr title "Exponential variate samples"
vector 19 LoRaNetworkTest.loRaNodes[22].app[0] emergencyVariate:vector ETV
attr recordingmode vector
attr title "Exponential variate samples"
vector 20 LoRaNetworkTest.loRaNodes[32].app[0] emergencyVariate:vector ETV
attr recordingmode vector
attr title "Exponential variate samples"
vector 21 LoRaNetworkTest.loRaNodes[45].app[0] emergencyVariate:vector ETV
attr recordingmode vector
attr title "Exponential variate samples"
vector 22 LoRaNetworkTest.loRaNodes[21].app[0] emergencyVariate:vector ETV
attr recordingmode vector
attr title "Exponential variate samples"
vector 23 LoRaNetworkTest.loRaNodes[4].app[0] emergencyVariate:vector ETV
attr recordingmode vector
attr title "Exponential variate samples"
vector 24 LoRaNetworkTest.loRaNodes[40].app[0] emergencyVariate:vector ETV
attr recordingmode vector
attr title "Exponential variate samples"
vector 25 LoRaNetworkTest.loRaNodes[37].app[0] emergencyVariate:vector ETV
attr recordingmode vector
attr title "Exponential variate samples"
vector 26 LoRaNetworkTest.loRaNodes[33].app[0] emergencyVariate:vector ETV
attr recordingmode vector
attr title "Exponential variate samples"
vector 27 LoRaNetworkTest.loRaNodes[16].app[0] emergencyVariate:vector ETV
attr recordingmode vector
attr title "Exponential variate samples"
vector 28 LoRaNetworkTest.loRaNodes[24].app[0] emergencyVariate:vector ETV
attr recordingmode vector
attr title "Exponential variate samples"
vector 29 LoRaNetworkTest.loRaNodes[30].app[0] emergencyVariate:vector ETV
attr recordingmode vector
attr title "Exponential variate samples"
vector 30 LoRaNetworkTest.loRaNodes[8].app[0] emergencyVariate:vector ETV
attr recordingmode vector
attr title "Exponential variate samples"
vector 31 LoRaNetworkTest.loRaNodes[20].app[0] emergencyVariate:vector ETV
attr recordingmode vector
attr title "Exponential variate samples"
vector 32 LoRaNetworkTest.loRaNodes[3].app[0] emergencyVariate:vector ETV
attr recordingmode vector
attr title "Exponential variate samples"
vector 33 LoRaNetworkTest.loRaNodes[43].app[0] emergencyVariate:vector ETV
attr recordingmode vector
attr title "Exponential variate samples"
vector 34 LoRaNetworkTest.loRaNodes[28].app[0] emergencyVariate:vector ETV
attr recordingmode vector
attr title "Exponential variate samples"
vector 35 LoRaNetworkTest.loRaNodes[17].app[0] emergencyVariate:vector ETV
attr recordingmode vector
attr title "Exponential variate samples"
vector 36 LoRaNetworkTest.loRaNodes[11].app[0] emergencyVariate:vector ETV
attr recordingmode vector
attr title "Exponential variate samples"
vector 37 LoRaNetworkTest.loRaNodes[2].app[0] emergencyVariate:vector ETV
attr recordingmode vector
attr title "Exponential variate samples"
vector 38 LoRaNetworkTest.loRaNodes[46].app[0] emergencyVariate:vector ETV
attr recordingmode vector
attr title "Exponential variate samples"
vector 39 LoRaNetworkTest.loRaNodes[34].app[0] emergencyVariate:vector ETV
attr recordingmode vector
attr title "Exponential variate samples"
vector 40 LoRaNetworkTest.loRaNodes[39].app[0] emergencyVariate:vector ETV
attr recordingmode vector
attr title "Exponential variate samples"
vector 41 LoRaNetworkTest.loRaNodes[12].app[0] emergencyVariate:vector ETV
attr recordingmode vector
attr title "Exponential variate samples"
vector 42 LoRaNetworkTest.loRaNodes[27].app[0] emergencyVariate:vector ETV
attr recordingmode vector
attr title "Exponential variate samples"
vector 43 LoRaNetworkTest.loRaNodes[29].app[0] emergencyVariate:vector ETV
attr recordingmode vector
attr title "Exponential variate samples"
vector 44 LoRaNetworkTest.loRaNodes[48].app[0] emergencyVariate:vector ETV
attr recordingmode vector
attr title "Exponential variate samples"
vector 45 LoRaNetworkTest.loRaNodes[25].app[0] emergencyVariate:vector ETV
attr recordingmode vector
attr title "Exponential variate samples"
vector 46 LoRaNetworkTest.loRaNodes[13].app[0] emergencyVariate:vector ETV
attr recordingmode vector
attr title "Exponential variate samples"
vector 47 LoRaNetworkTest.loRaNodes[10].app[0] emergencyVariate:vector ETV
attr recordingmode vector
attr title "Exponential variate samples"
vector 48 LoRaNetworkTest.loRaNodes[36].app[0] emergencyVariate:vector ETV
attr recordingmode vector
attr title "Exponential variate samples"
vector 49 LoRaNetworkTest.loRaNodes[44].app[0] emergencyVariate:vector ETV
attr recordingmode vector
attr title "Exponential variate samples"
vector 50 LoRaNetworkTest.HospitalServer.app[0] urgentWaitTime:vector ETV
attr recordingmode vector
attr title "Urgent wait time (s)"
vector 51 LoRaNetworkTest.HospitalServer.app[0] urgentEndToEndDelay:vector ETV
attr recordingmode vector
attr title "Urgent end-to-end delay (s)"
vector 52 LoRaNetworkTest.loRaNodes[47].app[0] emergencyVariate:vector ETV
attr recordingmode vector
attr title "Exponential variate samples"
vector 53 LoRaNetworkTest.loRaNodes[19].app[0] emergencyVariate:vector ETV
attr recordingmode vector
attr title "Exponential variate samples"
vector 54 LoRaNetworkTest.loRaNodes[6].app[0] emergencyVariate:vector ETV
attr recordingmode vector
attr title "Exponential variate samples"
0	5309	60.04296595245	1182.9136066057
0	11457	267.70779735894	178.15264126655
0	16079	439.75641053061	112.86147430302
0	21077	618.22562722302	374.9103546084
0	28394	855.2777117629	1377.9917514945
0	34611	1051.77931914241	1551.2079267868
0	40026	1235.60631536763	155.77476978754
0	45625	1419.36527165816	656.02124529991
0	52047	1625.79468118854	80.549297988933
0	57389	1797.87176124729	315.34013626812
0	63015	1973.80687105667	400.4456183844
0	68413	2148.90746749363	989.21027146102
0	73883	2334.60958889042	82.815758896253
0	79238	2510.72190372308	792.27426563159
0	84421	2690.7726683026	166.85304258645
0	91536	2912.84343607932	424.27265544674
0	97206	3102.69256320812	268.45696807049
0	103532	3301.1359532821	215.82411283353
0	108699	3474.47667746424	914.85893473898
1	5406	60.06782418311	1
1	5406	60.06782418311	0
1	5728	68.27356952604	1
1	5728	68.27356952604	0
1	6044	180.38401878079	1
1	6044	180.38401878079	0
1	6497	184.32109163771	1
1	6497	184.32109163771	0
1	6826	188.99286015424	1
1	6826	188.99286015424	0
1	7235	194.01272046608	1
1	7235	194.01272046608	0
1	7586	198.64898593554	1
1	7586	198.64898593554	0
1	8224	207.4755720602	1
1	8224	207.4755720602	0
1	8603	210.44104218479	1
1	8603	210.44104218479	0
1	9081	214.80581628712	1
1	9081	214.80581628712	0
1	9319	219.58092348418	1
1	9319	219.58092348418	0
1	9458	222.7041013999	1
1	9458	222.7041013999	0
1	9764	226.71784718645	1
1	9764	226.71784718645	0
1	9990	232.57374057703	1
1	9990	232.57374057703	0
1	10708	240.05840257061	1
1	10708	240.05840257061	0
1	10875	243.65856199785	1
1	10875	243.65856199785	0
1	11113	246.4575229906	1
1	11113	246.4575229906	0
1	11931	361.57182627986	1
1	11931	361.57182627986	0
1	12150	370.5105589731	1
1	12150	370.5105589731	0
1	12408	374.33699006545	1
1	12408	374.33699006545	0
1	12519	378.37091989776	1
1	12546	378.37518181634	0
1	12700	381.2646768662	1
1	12889	382.40399599217	0
1	12949	383.21678195501	1
1	12949	383.21678195501	0
1	13612	390.65458373936	1
1	13612	390.65458373936	0
1	14300	401.43691456764	1
1	14300	401.43691456764	0
1	14539	404.74466356793	1
1	14539	404.74466356793	0
1	15000	409.47809638852	1
1	15000	409.47809638852	0
1	15182	411.44852764407	1
1	15207	412.03813535465	0
1	15397	414.64847508879	1
1	15397	414.64847508879	0
1	15621	416.70133411708	1
1	15695	418.84954636417	0
1	15799	420.57055862945	1
1	15799	420.57055862945	0
1	15956	422.79702822422	1
1	15956	422.79702822422	0
1	16254	441.46854170157	1
1	16254	441.46854170157	0
1	17125	474.26501826564	1
1	17125	474.26501826564	0
1	17366	496.86345317576	1
1	17366	496.86345317576	0
1	17584	538.37197250058	1
1	17584	538.37197250058	0
1	17710	542.36021789734	1
1	17793	543.91262218817	0
1	17864	544.16071879862	1
1	17864	544.16071879862	0
1	18192	559.72090564931	1
1	18192	559.72090564931	0
1	18438	563.02638899594	1
1	18438	563.02638899594	0
1	18892	576.15282376139	1
1	18892	576.15282376139	0
1	19130	579.44003211402	1
1	19130	579.44003211402	0
1	19642	588.46296553745	1
1	19642	588.46296553745	0
1	19998	594.03984618116	1
1	19998	594.03984618116	0
1	20610	604.69320364798	1
1	20610	604.69320364798	0
1	20817	608.6018131505	1
1	20817	608.6018131505	0
1	20991	615.10052643464	1
1	20991	615.10052643464	0
1	21281	619.93776089798	1
1	21281	619.93776089798	0
1	21503	628.14506950009	1
1	21503	628.14506950009	0
1	22060	638.94540067352	1
1	22060	638.94540067352	0
1	22771	659.36692655553	1
1	22771	659.36692655553	0
1	22894	676.81691270039	1
1	22894	676.81691270039	0
1	23032	680.47110440514	1
1	23032	680.47110440514	0
1	23142	682.67756458656	1
1	23142	682.67756458656	0
1	23761	747.22151714178	1
1	23761	747.22151714178	0
1	23892	752.49035492978	1
1	23892	752.49035492978	0
1	24323	763.49022688517	1
1	24323	763.49022688517	0
1	24610	765.67652160037	1
1	24610	765.67652160037	0
1	25074	770.52498929311	1
1	25074	770.52498929311	0
1	25661	780.84186527321	1
1	25661	780.84186527321	0
1	25848	785.38835759794	1
1	25848	785.38835759794	0
1	26075	791.8276178654	1
1	26075	791.8276178654	0
1	26436	793.64453778063	1
1	26436	793.64453778063	0
1	26773	800.09174964656	1
1	26773	800.09174964656	0
1	27237	815.45952326069	1
1	27237	815.45952326069	0
1	27527	821.08398177695	1
1	27527	821.08398177695	0
1	28014	831.87176046912	1
1	28014	831.87176046912	0
1	28200	842.58108499584	1
1	28200	842.58108499584	0
1	28332	848.7306009116	1
1	28332	848.7306009116	0
1	28560	856.43653853578	1
1	28560	856.43653853578	0
1	28791	862.82911845204	1
1	28791	862.82911845204	0
1	29080	874.69001210966	1
1	29080	874.69001210966	0
1	29403	902.62958949358	1
1	29403	902.62958949358	0
1	29641	935.01185996888	1
1	29641	935.01185996888	0
1	29882	940.80181067791	1
1	29882	940.80181067791	0
1	30037	943.56619436121	1
1	30037	943.56619436121	0
1	30262	947.10245187996	1
1	30262	947.10245187996	0
1	30599	951.4891370538	1
1	30599	951.4891370538	0
1	30830	953.27678323205	1
1	30862	954.68871068528	0
1	31038	960.11345368501	1
1	31038	960.11345368501	0
1	31582	968.20997312298	1
1	31582	968.20997312298	0
1	32050	976.18439614857	1
1	32050	976.18439614857	0
1	32466	989.02311903358	1
1	32466	989.02311903358	0
1	32753	996.39658733073	1
1	32753	996.39658733073	0
1	33025	998.12092708966	1
1	33025	998.12092708966	0
1	33234	1002.52165890975	1
1	33234	1002.52165890975	0
1	33794	1020.08235258027	1
1	33794	1020.08235258027	0
1	34021	1026.49451767204	1
1	34021	1026.49451767204	0
1	34283	1032.90065763105	1
1	34283	1032.90065763105	0
1	34415	1035.55541463444	1
1	34415	1035.55541463444	0
1	34528	1045.31311521203	1
1	34528	1045.31311521203	0
1	34731	1051.92830856344	1
1	34731	1051.92830856344	0
1	35331	1083.55387801694	1
1	35331	1083.55387801694	0
1	35464	1110.57993467964	1
1	35464	1110.57993467964	0
1	35647	1121.06698217641	1
1	35647	1121.06698217641	0
1	35859	1125.24542148404	1
1	35859	1125.24542148404	0
1	36007	1134.2877004698	1
1	36007	1134.2877004698	0
1	36244	1139.23579981601	1
1	36244	1139.23579981601	0
1	36903	1148.54845358663	1
1	36903	1148.54845358663	0
1	37259	1157.46329580559	1
1	37259	1157.46329580559	0
1	37568	1159.64188660415	1
1	37568	1159.64188660415	0
1	37847	1168.19335274407	1
1	37847	1168.19335274407	0
1	38002	1170.21268087694	1
1	38002	1170.21268087694	0
1	38333	1181.61327645481	1
1	38333	1181.61327645481	0
1	38625	1191.65800074429	1
1	38625	1191.65800074429	0
1	38935	1201.97845840486	1
1	38935	1201.97845840486	0
1	39182	1208.14580661294	1
1	39182	1208.14580661294	0
1	39419	1210.15149141524	1
1	39419	1210.15149141524	0
1	39642	1213.73488334161	1
1	39642	1213.73488334161	0
1	39905	1220.84142614116	1
1	39905	1220.84142614116	0
1	40503	1245.57332930663	1
1	40503	1245.57332930663	0
1	40634	1257.39948983511	1
1	40634	1257.39948983511	0
1	40848	1261.90115482286	1
1	40848	1261.90115482286	0
1	40979	1277.33596151454	1
1	40979	1277.33596151454	0
1	41463	1315.23359629723	1
1	41463	1315.23359629723	0
1	41832	1318.63542340087	1
1	41832	1318.63542340087	0
1	42245	1330.71997000944	1
1	42245	1330.71997000944	0
1	42508	1336.77709254657	1
1	42508	1336.77709254657	0
1	42674	1342.77700827357	1
1	42674	1342.77700827357	0
1	43086	1346.14843821639	1
1	43086	1346.14843821639	0
1	43322	1349.48021759265	1
1	43322	1349.48021759265	0
1	43722	1362.25059184585	1
1	43722	1362.25059184585	0
1	44399	1378.31571994012	1
1	44399	1378.31571994012	0
1	44504	1381.32599182159	1
1	44504	1381.32599182159	0
1	44658	1383.42712342068	1
1	44658	1383.42712342068	0
1	44778	1386.02082878783	1
1	44778	1386.02082878783	0
1	44957	1393.38517834035	1
1	44957	1393.38517834035	0
1	45269	1402.20851579747	1
1	45269	1402.20851579747	0
1	45622	1418.76150939173	1
1	45622	1418.76150939173	0
1	45842	1424.18934308853	1
1	45842	1424.18934308853	0
1	46298	1436.64005767376	1
1	46298	1436.64005767376	0
1	46446	1442.92278314325	1
1	46446	1442.92278314325	0
1	47018	1480.68488871679	1
1	47018	1480.68488871679	0
1	47128	1486.4011638875	1
1	47128	1486.4011638875	0
1	47258	1488.42133997555	1
1	47258	1488.42133997555	0
1	47390	1491.96112690972	1
1	47390	1491.96112690972	0
1	47577	1505.14064061609	1
1	47577	1505.14064061609	0
1	47916	1509.76156229213	1
1	47916	1509.76156229213	0
1	48145	1518.08057911308	1
1	48145	1518.08057911308	0
1	48292	1520.36681161893	1
1	48296	1520.45788847028	0
1	48417	1524.44286845337	1
1	48417	1524.44286845337	0
1	48548	1527.93101232477	1
1	48548	1527.93101232477	0
1	48793	1530.53565316722	1
1	48793	1530.53565316722	0
1	49011	1540.42721653995	1
1	49011	1540.42721653995	0
1	49630	1552.77653016259	1
1	49630	1552.77653016259	0
1	49849	1560.64458477376	1
1	49849	1560.64458477376	0
1	50330	1576.91745625632	1
1	50330	1576.91745625632	0
1	50656	1583.3843412115	1
1	50656	1583.3843412115	0
1	50763	1588.27473245837	1
1	50763	1588.27473245837	0
1	51078	1593.08660285441	1
1	51078	1593.08660285441	0
1	51305	1596.38735697667	1
1	51305	1596.38735697667	0
1	51505	1598.80757460953	1
1	51505	1598.80757460953	0
1	51779	1613.54090814574	1
1	51779	1613.54090814574	0
1	51982	1624.88047072793	1
1	51982	1624.88047072793	0
1	52251	1627.5068148635	1
1	52251	1627.5068148635	0
1	52378	1638.02207671097	1
1	52378	1638.02207671097	0
1	52985	1664.76393012464	1
1	52985	1664.76393012464	0
1	53282	1677.31395081812	1
1	53282	1677.31395081812	0
1	53628	1686.77961855961	1
1	53628	1686.77961855961	0
1	53876	1693.83922391253	1
1	53876	1693.83922391253	0
1	54028	1698.13265396576	1
1	54028	1698.13265396576	0
1	54270	1706.44777120598	1
1	54270	1706.44777120598	0
1	54498	1713.26540694021	1
1	54498	1713.26540694021	0
1	54671	1723.37434985087	1
1	54671	1723.37434985087	0
1	55021	1734.31401989846	1
1	55021	1734.31401989846	0
1	55369	1742.74789550562	1
1	55369	1742.74789550562	0
1	55715	1751.71577581723	1
1	55715	1751.71577581723	0
1	56060	1758.35249094353	1
1	56060	1758.35249094353	0
1	56278	1762.17336402914	1
1	56278	1762.17336402914	0
1	56424	1766.10881004877	1
1	56424	1766.10881004877	0
1	56730	1771.39023980368	1
1	56730	1771.39023980368	0
1	57120	1778.53058840268	1
1	57120	1778.53058840268	0
1	57254	1783.87258676224	1
1	57254	1783.87258676224	0
1	57600	1802.64013941261	1
1	57600	1802.64013941261	0
1	57745	1814.45930931309	1
1	57745	1814.45930931309	0
1	57926	1820.2855928749	1
1	57926	1820.2855928749	0
1	58125	1829.08050037141	1
1	58125	1829.08050037141	0
1	58240	1830.93386533045	1
1	58240	1830.93386533045	0
1	58794	1851.97304000254	1
1	58794	1851.97304000254	0
1	59006	1855.84171891755	1
1	59006	1855.84171891755	0
1	59281	1864.73591120617	1
1	59281	1864.73591120617	0
1	59469	1870.12278292655	1
1	59469	1870.12278292655	0
1	59698	1871.86662044328	1
1	59698	1871.86662044328	0
1	59941	1881.62729020682	1
1	59941	1881.62729020682	0
1	60223	1886.68772094853	1
1	60223	1886.68772094853	0
1	60424	1901.84239754054	1
1	60424	1901.84239754054	0
1	60528	1903.91484384769	1
1	60555	1904.66430696816	0
1	60775	1913.82284327562	1
1	60775	1913.82284327562	0
1	61228	1923.87654038379	1
1	61228	1923.87654038379	0
1	61704	1932.94505915344	1
1	61704	1932.94505915344	0
1	61875	1936.83673669041	1
1	61875	1936.83673669041	0
1	62171	1941.83953212139	1
1	62171	1941.83953212139	0
1	62519	1952.36381887692	1
1	62519	1952.36381887692	0
1	62980	1964.55218206061	1
1	62980	1964.55218206061	0
1	63346	1985.78553649786	1
1	63346	1985.78553649786	0
1	63514	1994.97364348305	1
1	63514	1994.97364348305	0
1	63621	1997.59080166636	1
1	63621	1997.59080166636	0
1	63764	2003.35328520299	1
1	63764	2003.35328520299	0
1	64004	2030.25307387627	1
1	64004	2030.25307387627	0
1	64199	2042.34064128478	1
1	64199	2042.34064128478	0
1	64364	2050.20418324965	1
1	64364	2050.20418324965	0
1	64944	2067.18183211482	1
1	64944	2067.18183211482	0
1	65355	2080.60423624076	1
1	65355	2080.60423624076	0
1	65538	2083.61561662726	1
1	65538	2083.61561662726	0
1	65971	2097.9778779448	1
1	65971	2097.9778779448	0
1	66328	2104.86146022818	1
1	66328	2104.86146022818	0
1	66458	2108.35544923944	1
1	66458	2108.35544923944	0
1	66857	2113.66299272699	1
1	66857	2113.66299272699	0
1	67214	2120.46270051957	1
1	67214	2120.46270051957	0
1	67376	2122.21767145991	1
1	67376	2122.21767145991	0
1	67939	2131.33081618198	1
1	67939	2131.33081618198	0
1	68510	2149.22473850939	1
1	68510	2149.22473850939	0
1	68915	2165.77641461812	1
1	68915	2165.77641461812	0
1	69053	2170.30338785041	1
1	69076	2170.60612966049	0
1	69197	2174.744858203	1
1	69197	2174.744858203	0
1	69336	2189.45802355389	1
1	69336	2189.45802355389	0
1	69456	2199.90453914871	1
1	69456	2199.90453914871	0
1	69587	2208.99268755506	1
1	69587	2208.99268755506	0
1	69823	2216.01641717806	1
1	69823	2216.01641717806	0
1	70022	2231.32014989122	1
1	70022	2231.32014989122	0
1	70209	2239.55207596206	1
1	70209	2239.55207596206	0
1	70368	2243.14673177391	1
1	70368	2243.14673177391	0
1	70587	2254.40356939202	1
1	70587	2254.40356939202	0
1	70938	2265.21406400079	1
1	70938	2265.21406400079	0
1	71064	2269.41726083568	1
1	71064	2269.41726083568	0
1	71628	2277.8131708486	1
1	71628	2277.8131708486	0
1	71923	2285.23199655354	1
1	71923	2285.23199655354	0
1	72431	2294.57640592249	1
1	72431	2294.57640592249	0
1	72628	2307.27163389971	1
1	72628	2307.27163389971	0
1	72804	2309.57741857917	1
1	72804	2309.57741857917	0
1	72995	2314.70292272814	1
1	72995	2314.70292272814	0
1	73420	2324.26355729632	1
1	73420	2324.26355729632	0
1	73583	2329.62132500398	1
1	73583	2329.62132500398	0
1	74207	2341.12520095434	1
1	74207	2341.12520095434	0
1	74667	2347.33776313947	1
1	74667	2347.33776313947	0
1	74936	2357.27408379025	1
1	74936	2357.27408379025	0
1	75055	2359.91386001692	1
1	75055	2359.91386001692	0
1	75279	2374.22630150181	1
1	75279	2374.22630150181	0
1	75465	2380.06123676414	1
1	75465	2380.06123676414	0
1	75705	2404.35647463202	1
1	75705	2404.35647463202	0
1	75825	2410.33097866268	1
1	75825	2410.33097866268	0
1	75955	2413.81221569014	1
1	75955	2413.81221569014	0
1	76303	2441.08296849287	1
1	76303	2441.08296849287	0
1	76441	2443.13020536965	1
1	76450	2444.44507837875	0
1	76947	2452.229661792	1
1	76947	2452.229661792	0
1	77054	2453.92297096664	1
1	77274	2456.64898517232	2
1	77278	2457.38325226291	1
1	77281	2457.77817938414	0
1	77391	2464.49119053681	1
1	77391	2464.49119053681	0
1	78011	2487.03597066565	1
1	78011	2487.03597066565	0
1	78250	2497.2353956797	1
1	78250	2497.2353956797	0
1	78464	2499.56359138052	1
1	78464	2499.56359138052	0
1	78751	2502.26770181215	1
1	78751	2502.26770181215	0
1	78961	2504.45760404197	1
1	78961	2504.45760404197	0
1	79098	2506.36247025146	1
1	79098	2506.36247025146	0
1	79207	2510.1911836325	1
1	79207	2510.1911836325	0
1	79830	2522.14122990558	1
1	79830	2522.14122990558	0
1	80018	2527.35131648588	1
1	80018	2527.35131648588	0
1	80153	2535.71703966423	1
1	80153	2535.71703966423	0
1	80946	2560.89296859763	1
1	80946	2560.89296859763	0
1	81081	2566.07567363653	1
1	81081	2566.07567363653	0
1	81324	2574.38226729416	1
1	81324	2574.38226729416	0
1	81463	2580.7254169965	1
1	81463	2580.7254169965	0
1	81636	2591.52363828714	1
1	81636	2591.52363828714	0
1	81945	2598.089503665	1
1	81945	2598.089503665	0
1	82484	2627.30974187241	1
1	82484	2627.30974187241	0
1	82673	2638.92593255566	1
1	82673	2638.92593255566	0
1	82843	2641.49032849082	1
1	82843	2641.49032849082	0
1	83348	2664.06920308991	1
1	83348	2664.06920308991	0
1	83695	2676.71536384974	1
1	83695	2676.71536384974	0
1	83979	2678.96918978205	1
1	83979	2678.96918978205	0
1	84234	2686.1183148049	1
1	84234	2686.1183148049	0
1	84686	2694.03402004176	1
1	84686	2694.03402004176	0
1	84987	2699.27027687213	1
1	84987	2699.27027687213	0
1	85141	2701.79028148853	1
1	85141	2701.79028148853	0
1	85407	2711.10824046322	1
1	85407	2711.10824046322	0
1	85645	2713.65241254905	1
1	85645	2713.65241254905	0
1	86047	2717.46112757702	1
1	86047	2717.46112757702	0
1	86520	2732.88688725695	1
1	86520	2732.88688725695	0
1	86764	2740.55979698223	1
1	86764	2740.55979698223	0
1	87378	2776.70686235343	1
1	87378	2776.70686235343	0
1	87609	2783.01585105519	1
1	87609	2783.01585105519	0
1	87740	2787.9635166649	1
1	87740	2787.9635166649	0
1	87980	2805.96567984353	1
1	87980	2805.96567984353	0
1	88483	2857.33872099707	1
1	88483	2857.33872099707	0
1	89340	2868.05658688569	1
1	89340	2868.05658688569	0
1	89584	2871.95334475658	1
1	89584	2871.95334475658	0
1	89694	2874.25883234472	1
1	89694	2874.25883234472	0
1	89832	2878.96157181697	1
1	89832	2878.96157181697	0
1	90283	2888.17173250932	1
1	90283	2888.17173250932	0
1	90603	2892.4590199138	1
1	90603	2892.4590199138	0
1	91366	2908.21653568317	1
1	91366	2908.21653568317	0
1	91634	2914.22843650623	1
1	91634	2914.22843650623	0
1	91850	2920.76416136346	1
1	91850	2920.76416136346	0
1	92385	2928.22583692923	1
1	92385	2928.22583692923	0
1	92641	2942.02439479307	1
1	92641	2942.02439479307	0
1	92817	2943.84766277173	1
1	92817	2943.84766277173	0
1	93127	2953.49086827849	1
1	93127	2953.49086827849	0
1	93261	2961.48609149442	1
1	93261	2961.48609149442	0
1	93400	2970.73942344735	1
1	93400	2970.73942344735	0
1	93520	2979.46351955043	1
1	93520	2979.46351955043	0
1	93651	2987.16013614841	1
1	93651	2987.16013614841	0
1	93903	2999.85702584876	1
1	93903	2999.85702584876	0
1	94032	3008.05601393	1
1	94032	3008.05601393	0
1	94355	3038.98211652034	1
1	94355	3038.98211652034	0
1	94624	3044.61814658387	1
1	94624	3044.61814658387	0
1	94780	3046.97054930057	1
1	94780	3046.97054930057	0
1	94915	3052.92672853821	1
1	94915	3052.92672853821	0
1	95097	3055.19512004839	1
1	95097	3055.19512004839	0
1	95474	3060.27449716171	1
1	95474	3060.27449716171	0
1	95615	3066.01690223193	1
1	95615	3066.01690223193	0
1	95807	3068.47610925996	1
1	95807	3068.47610925996	0
1	96142	3077.50886526523	1
1	96142	3077.50886526523	0
1	96543	3081.5551826942	1
1	96543	3081.5551826942	0
1	96895	3091.89293255299	1
1	96895	3091.89293255299	0
1	97518	3106.63603443109	1
1	97518	3106.63603443109	0
1	97761	3109.73925679879	1
1	97761	3109.73925679879	0
1	98211	3114.78807582279	1
1	98211	3114.78807582279	0
1	98521	3127.99996278347	1
1	98521	3127.99996278347	0
1	98661	3131.0173405384	1
1	98661	3131.0173405384	0
1	98902	3134.45988136495	1
1	98902	3134.45988136495	0
1	99160	3141.97981500708	1
1	99160	3141.97981500708	0
1	99290	3147.75436851084	1
1	99290	3147.75436851084	0
1	99410	3158.66950488148	1
1	99410	3158.66950488148	0
1	99579	3162.65810312223	1
1	99579	3162.65810312223	0
1	100037	3208.97812576942	1
1	100037	3208.97812576942	0
1	100256	3219.29091887916	1
1	100256	3219.29091887916	0
1	100386	3224.27676758477	1
1	100386	3224.27676758477	0
1	100624	3227.32893711825	1
1	100624	3227.32893711825	0
1	100760	3236.98706545201	1
1	100760	3236.98706545201	0
1	101129	3245.21200945838	1
1	101129	3245.21200945838	0
1	101623	3257.89511328319	1
1	101623	3257.89511328319	0
1	101825	3260.59511754127	1
1	101825	3260.59511754127	0
1	101953	3265.38009778451	1
1	101953	3265.38009778451	0
1	102178	3274.0657067304	1
1	102178	3274.0657067304	0
1	102361	3278.06562516774	1
1	102361	3278.06562516774	0
1	102983	3284.88761963346	1
1	102983	3284.88761963346	0
1	103256	3288.04028229211	1
1	103256	3288.04028229211	0
1	103386	3290.4929078881	1
1	103386	3290.4929078881	0
1	103756	3307.91107125336	1
1	103756	3307.91107125336	0
1	104309	3313.97618555032	1
1	104309	3313.97618555032	0
1	104517	3321.43218004754	1
1	104517	3321.43218004754	0
1	104677	3323.76081995537	1
1	104699	3323.87327279409	0
1	105257	3354.28851577449	1
1	105257	3354.28851577449	0
1	105380	3357.04188230765	1
1	105380	3357.04188230765	0
1	105536	3366.0034126225	1
1	105536	3366.0034126225	0
1	105750	3395.88113630491	1
1	105750	3395.88113630491	0
1	105958	3403.36155708776	1
1	105958	3403.36155708776	0
1	106277	3407.33007120132	1
1	106277	3407.33007120132	0
1	106769	3419.97684539931	1
1	106769	3419.97684539931	0
1	108278	3468.64383039686	1
1	108278	3468.64383039686	0
1	108479	3471.6076120401	1
1	108479	3471.6076120401	0
1	108909	3476.14015088054	1
1	108909	3476.14015088054	0
1	109280	3488.59141929916	1
1	109280	3488.59141929916	0
1	109623	3491.83780106561	1
1	109623	3491.83780106561	0
1	110021	3502.35237566043	1
1	110021	3502.35237566043	0
1	110368	3529.79133685109	1
1	110368	3529.79133685109	0
1	110544	3535.5750411526	1
1	110544	3535.5750411526	0
1	110668	3538.2738494295	1
1	110668	3538.2738494295	0
1	110796	3543.43872857699	1
1	110796	3543.43872857699	0
1	111055	3549.01996258151	1
1	111055	3549.01996258151	0
1	111165	3554.93826521197	1
1	111165	3554.93826521197	0
1	111418	3576.05382749337	1
1	111418	3576.05382749337	0
1	111540	3581.96794270949	1
1	111540	3581.96794270949	0
1	111774	3586.45849225574	1
1	111774	3586.45849225574	0
1	112125	3595.16584595768	1
1	112125	3595.16584595768	0
2	5406	60.06782418311	1.7121303896
2	5728	68.27356952604	1.71213107194
2	6044	180.38401878079	1.71213251739
2	6497	184.32109163771	1.71213132783
2	6826	188.99286015424	1.71212980313
2	7235	194.01272046608	1.71213011632
2	7586	198.64898593554	1.7121296533
2	8224	207.4755720602	1.71213012246
2	8603	210.44104218479	1.71213021693
2	9081	214.80581628712	1.71213030543
2	9319	219.58092348418	1.71213005083
2	9458	222.7041013999	1.7121304074
2	9764	226.71784718645	1.71213062195
2	9990	232.57374057703	1.71212998231
2	10708	240.05840257061	1.7121303896
2	10875	243.65856199785	1.71213160669
2	11931	361.57182627986	1.71213315066
2	12150	370.5105589731	1.71213011632
2	12408	374.33699006545	1.71213120457
2	12546	378.37518181634	1.71639168763
2	12889	382.40399599217	2.8514489291
2	12949	383.21678195501	1.71213012246
2	13612	390.65458373936	1.7121296533
2	14539	404.74466356793	1.71212968845
2	15000	409.47809638852	1.7121304074
2	15207	412.03813535465	2.30173769289
2	15397	414.64847508879	1.7121310994
2	15695	418.84954636417	3.86034253086
2	15799	420.57055862945	1.7121303896
2	15956	422.79702822422	1.7121307324
2	16254	441.46854170157	1.71213117096
2	17125	474.26501826564	1.71213043818
2	17366	496.86345317576	1.7121331012
2	17584	538.37197250058	1.71213064666
2	17793	543.91262218817	3.26453440715
2	17864	544.16071879862	1.71213229288
2	18192	559.72090564931	1.71213001339
2	18438	563.02638899594	1.71213012246
2	18892	576.15282376139	1.71213024799
2	19130	579.44003211402	1.71213005083
2	19642	588.46296553745	1.71212976905
2	19998	594.03984618116	1.7121296533
2	20610	604.69320364798	1.71213021693
2	20817	608.6018131505	1.71213028377
2	20991	615.10052643464	1.71212980313
2	21281	619.93776089798	1.71213367496
2	22060	638.94540067352	1.7121303896
2	22771	659.36692655553	1.71213062195
2	22894	676.81691270039	1.7121305972
2	23032	680.47110440514	1.71213070852
2	23142	682.67756458656	1.71213043818
2	23761	747.22151714178	1.71213262421
2	23892	752.49035492978	1.71213094154
2	24323	763.49022688517	1.71213064666
2	24610	765.67652160037	1.71213005083
2	25074	770.52498929311	1.71212968845
2	25661	780.84186527321	1.71213028377
2	25848	785.38835759794	1.7121304074
2	26075	791.8276178654	1.71212980313
2	26436	793.64453778063	1.71213213953
2	26773	800.09174964656	1.71212976905
2	27237	815.45952326069	1.71212998231
2	27527	821.08398177695	1.7121303896
2	28014	831.87176046912	1.7121310994
2	28200	842.58108499584	1.71213062195
2	28332	848.7306009116	1.71213107194
2	28560	856.43653853578	1.7121305972
2	28791	862.82911845204	1.71213043818
2	29080	874.69001210966	1.712133102
2	29403	902.62958949358	1.71213021693
2	29641	935.01185996888	1.71213011632
2	29882	940.80181067791	1.71213005083
2	30037	943.56619436121	1.71213161146
2	30262	947.10245187996	1.71213012246
2	30599	951.4891370538	1.71212968845
2	30862	954.68871068528	3.12405710653
2	31038	960.11345368501	1.7121304074
2	31582	968.20997312298	1.71212980313
2	32050	976.18439614857	1.71212976905
2	32466	989.02311903358	1.71212998231
2	33025	998.12092708966	1.71213030543
2	33234	1002.52165890975	1.71213165605
2	33794	1020.08235258027	1.71213062195
2	34021	1026.49451767204	1.71213042582
2	34283	1032.90065763105	1.71213070852
2	34415	1035.55541463444	1.71213107194
2	34528	1045.31311521203	1.71213043818
2	34731	1051.92830856344	1.712130598
2	35331	1083.55387801694	1.71213021693
2	35464	1110.57993467964	1.71213011632
2	35647	1121.06698217641	1.71213344554
2	35859	1125.24542148404	1.71213005083
2	36007	1134.2877004698	1.71213028377
2	36244	1139.23579981601	1.71213012021
2	36903	1148.54845358663	1.71212968845
2	37259	1157.46329580559	1.7121296533
2	37568	1159.64188660415	1.7121307324
2	37847	1168.19335274407	1.7121303896
2	38002	1170.21268087694	1.71213160669
2	38333	1181.61327645481	1.71212976905
2	38625	1191.65800074429	1.71212980313
2	38935	1201.97845840486	1.71213030543
2	39182	1208.14580661294	1.71213062195
2	39419	1210.15149141524	1.71213107194
2	39642	1213.73488334161	1.71212998231
2	39905	1220.84142614116	1.71213165605
2	40503	1245.57332930663	1.71213321252
2	40634	1257.39948983511	1.71213229288
2	40848	1261.90115482286	1.71213043818
2	40979	1277.33596151454	1.71213021693
2	41463	1315.23359629723	1.71213094154
2	41832	1318.63542340087	1.71213005083
2	42245	1330.71997000944	1.7121304074
2	42508	1336.77709254657	1.7121307324
2	42674	1342.77700827357	1.71212968845
2	43086	1346.14843821639	1.71213120457
2	43322	1349.48021759265	1.71213012246
2	43722	1362.25059184585	1.7121296533
2	44399	1378.31571994012	1.71213227305
2	44504	1381.32599182159	1.7121303896
2	44658	1383.42712342068	1.71213062195
2	44778	1386.02082878783	1.71213030543
2	44957	1393.38517834035	1.71213001339
2	45269	1402.20851579747	1.712130598
2	45842	1424.18934308853	1.71212998231
2	46446	1442.92278314325	1.7121305972
2	47018	1480.68488871679	1.71213107194
2	47128	1486.4011638875	1.71213021693
2	47258	1488.42133997555	1.71213011632
2	47390	1491.96112690972	1.71213042582
2	47577	1505.14064061609	1.71213255483
2	47916	1509.76156229213	1.71213094154
2	48296	1520.45788847028	1.80320758375
2	48417	1524.44286845337	1.71213012246
2	48548	1527.93101232477	1.71213028377
2	48793	1530.53565316722	1.71213161146
2	49011	1540.42721653995	1.71213024799
2	49630	1552.77653016259	1.7121296533
2	49849	1560.64458477376	1.71213062195
2	50330	1576.91745625632	1.71212976905
2	50656	1583.3843412115	1.712130598
2	50763	1588.27473245837	1.71212980313
2	51078	1593.08660285441	1.71213070852
2	51305	1596.38735697667	1.71213012021
2	51505	1598.80757460953	1.71213165605
2	51779	1613.54090814574	1.71213043818
2	51982	1624.88047072793	1.7121305972
2	52251	1627.5068148635	1.71213367496
2	52378	1638.02207671097	1.71213030543
2	52985	1664.76393012464	1.71213011632
2	53282	1677.31395081812	1.71213042582
2	53628	1686.77961855961	1.71213005083
2	53876	1693.83922391253	1.71212968845
2	54028	1698.13265396576	1.7121307324
2	54270	1706.44777120598	1.71213107194
2	54498	1713.26540694021	1.71213028377
2	54671	1723.37434985087	1.71213024799
2	55021	1734.31401989846	1.71213064666
2	55369	1742.74789550562	1.7121296533
2	55715	1751.71577581723	1.71213227305
2	56060	1758.35249094353	1.7121310994
2	56278	1762.17336402914	1.71212980313
2	56424	1766.10881004877	1.7121304074
2	56730	1771.39023980368	1.712130598
2	57120	1778.53058840268	1.71213012021
2	57254	1783.87258676224	1.71212998231
2	57600	1802.64013941261	1.71213043818
2	57745	1814.45930931309	1.7121305972
2	58125	1829.08050037141	1.71213165605
2	58240	1830.93386533045	1.71213030543
2	58794	1851.97304000254	1.71213021693
2	59006	1855.84171891755	1.71213094154
2	59281	1864.73591120617	1.71213011632
2	59469	1870.12278292655	1.71212968845
2	59698	1871.86662044328	1.71213255483
2	59941	1881.62729020682	1.71213107194
2	60223	1886.68772094853	1.71213028377
2	60424	1901.84239754054	1.7121307324
2	60555	1904.66430696816	2.46159336846
2	60775	1913.82284327562	1.71213064666
2	61228	1923.87654038379	1.71212976905
2	61704	1932.94505915344	1.7121310994
2	62171	1941.83953212139	1.71213001339
2	62519	1952.36381887692	1.7121303896
2	62980	1964.55218206061	1.71212980313
2	63346	1985.78553649786	1.7121305972
2	63514	1994.97364348305	1.71213262421
2	63621	1997.59080166636	1.71213043818
2	63764	2003.35328520299	1.71213030543
2	64004	2030.25307387627	1.71213012246
2	64199	2042.34064128478	1.71213094154
2	64364	2050.20418324965	1.71213005083
2	64944	2067.18183211482	1.71213028377
2	65355	2080.60423624076	1.712130598
2	65538	2083.61561662726	1.7121307324
2	65971	2097.9778779448	1.71213042582
2	66328	2104.86146022818	1.71212968845
2	66458	2108.35544923944	1.71213024799
2	66857	2113.66299272699	1.7121296533
2	67214	2120.46270051957	1.71213262032
2	67376	2122.21767145991	1.71213001339
2	67939	2131.33081618198	1.71212976905
2	68510	2149.22473850939	1.71212980313
2	68915	2165.77641461812	1.7121303896
2	69076	2170.60612966049	2.01487224826
2	69197	2174.744858203	1.7121305972
2	69336	2189.45802355389	1.71213070852
2	69456	2199.90453914871	1.71213012021
2	69587	2208.99268755506	1.71213012246
2	69823	2216.01641717806	1.71213030543
2	70022	2231.32014989122	1.71213094154
2	70368	2243.14673177391	1.71213411546
2	70938	2265.21406400079	1.71213028377
2	71628	2277.8131708486	1.71212968845
2	71923	2285.23199655354	1.7121296533
2	72431	2294.57640592249	1.71213001339
2	72628	2307.27163389971	1.71212998231
2	72804	2309.57741857917	1.71213011632
2	72995	2314.70292272814	1.71212976905
2	73420	2324.26355729632	1.71213132783
2	73583	2329.62132500398	1.71213021693
2	74667	2347.33776313947	1.71213043818
2	74936	2357.27408379025	1.71213165605
2	75055	2359.91386001692	1.7121305972
2	75279	2374.22630150181	1.71213262421
2	75465	2380.06123676414	1.71213070852
2	75705	2404.35647463202	1.71213094154
2	75825	2410.33097866268	1.71213030543
2	75955	2413.81221569014	1.71213012246
2	76303	2441.08296849287	1.71213028377
2	76450	2444.44507837875	3.0270036071
2	76947	2452.229661792	1.71213107194
2	77278	2457.38325226291	5.17241172209
2	77281	2457.77817938414	2.84132686392
2	77391	2464.49119053681	1.71213005083
2	78011	2487.03597066565	1.71213011632
2	78250	2497.2353956797	1.71213251739
2	78464	2499.56359138052	1.71212998231
2	78751	2502.26770181215	1.7121296533
2	78961	2504.45760404197	1.7121307324
2	79098	2506.36247025146	1.71213164761
2	79207	2510.1911836325	1.71213021693
2	79830	2522.14122990558	1.71213043818
2	80018	2527.35131648588	1.71212980313
2	80153	2535.71703966423	1.71212968845
2	80946	2560.89296859763	1.7121304074
2	81081	2566.07567363653	1.71213012021
2	81324	2574.38226729416	1.7121305972
2	81463	2580.7254169965	1.71213094154
2	81945	2598.089503665	1.71213160669
2	82484	2627.30974187241	1.71213292982
2	82673	2638.92593255566	1.71213213953
2	82843	2641.49032849082	1.71213028377
2	83348	2664.06920308991	1.71213011632
2	83695	2676.71536384974	1.71213005083
2	83979	2678.96918978205	1.7121296533
2	84234	2686.1183148049	1.71212998231
2	84686	2694.03402004176	1.71213043818
2	85141	2701.79028148853	1.7121310994
2	85407	2711.10824046322	1.71212980313
2	85645	2713.65241254905	1.71212968845
2	86047	2717.46112757702	1.71212976905
2	86520	2732.88688725695	1.71213064666
2	86764	2740.55979698223	1.7121304074
2	87378	2776.70686235343	1.71213262646
2	87609	2783.01585105519	1.7121305972
2	87740	2787.9635166649	1.71213012021
2	87980	2805.96567984353	1.71213030543
2	88483	2857.33872099707	1.71212998231
2	89340	2868.05658688569	1.7121307324
2	89584	2871.95334475658	1.71213062195
2	89694	2874.25883234472	1.71213024799
2	89832	2878.96157181697	1.71213043818
2	90283	2888.17173250932	1.71212980313
2	91366	2908.21653568317	1.71213315066
2	91634	2914.22843650623	1.71212976905
2	91850	2920.76416136346	1.71213257722
2	92385	2928.22583692923	1.7121303896
2	92641	2942.02439479307	1.7121304074
2	93127	2953.49086827849	1.71213012246
2	93400	2970.73942344735	1.71213094154
2	93520	2979.46351955043	1.71213030543
2	93651	2987.16013614841	1.71213012021
2	93903	2999.85702584876	1.71213259893
2	94032	3008.05601393	1.712130598
2	94355	3038.98211652034	1.71213292982
2	94624	3044.61814658387	1.71213011632
2	94780	3046.97054930057	1.71213120457
2	94915	3052.92672853821	1.71213062195
2	95097	3055.19512004839	1.7121310994
2	95474	3060.27449716171	1.71213005083
2	95615	3066.01690223193	1.7121296533
2	95807	3068.47610925996	1.71213028377
2	96142	3077.50886526523	1.71213024799
2	96543	3081.5551826942	1.71212998231
2	96895	3091.89293255299	1.71212976905
2	97518	3106.63603443109	1.71213064666
2	98211	3114.78807582279	1.7121303896
2	98521	3127.99996278347	1.71212968845
2	98661	3131.0173405384	1.71213012246
2	98902	3134.45988136495	1.7121305972
2	99160	3141.97981500708	1.71213218364
2	99290	3147.75436851084	1.71213094154
2	99410	3158.66950488148	1.71213030543
2	99579	3162.65810312223	1.71213262421
2	100037	3208.97812576942	1.712130598
2	100256	3219.29091887916	1.71213011632
2	100386	3224.27676758477	1.71213021693
2	100624	3227.32893711825	1.71213043818
2	100760	3236.98706545201	1.71213005083
2	101129	3245.21200945838	1.7121307324
2	101623	3257.89511328319	1.7121296533
2	101825	3260.59511754127	1.71213165605
2	102178	3274.0657067304	1.71212980313
2	102361	3278.06562516774	1.71212976905
2	102983	3284.88761963346	1.71213312595
2	103256	3288.04028229211	1.71213001339
2	103386	3290.4929078881	1.7121303896
2	103756	3307.91107125336	1.7121305972
2	104309	3313.97618555032	1.71213012246
2	104517	3321.43218004754	1.71213094154
2	104699	3323.87327279409	1.82458282103
2	105257	3354.28851577449	1.71213030543
2	105380	3357.04188230765	1.71212968845
2	105536	3366.0034126225	1.71213107194
2	105750	3395.88113630491	1.71213021693
2	105958	3403.36155708776	1.712130598
2	106277	3407.33007120132	1.71213262032
2	106769	3419.97684539931	1.71213005083
2	108278	3468.64383039686	1.71213001339
2	108479	3471.6076120401	1.71213062195
2	108909	3476.14015088054	1.7121303896
2	109280	3488.59141929916	1.71213012246
2	109623	3491.83780106561	1.7121305972
2	110021	3502.35237566043	1.71212980313
2	110368	3529.79133685109	1.71213248631
2	110544	3535.5750411526	1.71213030543
2	110668	3538.2738494295	1.7121304074
2	110796	3543.43872857699	1.71212968845
2	111055	3549.01996258151	1.71213107194
2	111165	3554.93826521197	1.71213024799
2	111418	3576.05382749337	1.71213012021
2	111540	3581.96794270949	1.71213043818
2	111774	3586.45849225574	1.71213011632
2	112125	3595.16584595768	1.71213005083
3	5406	60.06782418311	1.7121303896
3	5728	68.27356952604	1.71213107194
3	6044	180.38401878079	1.71213251739
3	6497	184.32109163771	1.71213132783
3	6826	188.99286015424	1.71212980313
3	7235	194.01272046608	1.71213011632
3	7586	198.64898593554	1.7121296533
3	8224	207.4755720602	1.71213012246
3	8603	210.44104218479	1.71213021693
3	9081	214.80581628712	1.71213030543
3	9319	219.58092348418	1.71213005083
3	9458	222.7041013999	1.7121304074
3	9764	226.71784718645	1.71213062195
3	9990	232.57374057703	1.71212998231
3	10708	240.05840257061	1.7121303896
3	10875	243.65856199785	1.71213160669
3	11931	361.57182627986	1.71213315066
3	12150	370.5105589731	1.71213011632
3	12408	374.33699006545	1.71213120457
3	12546	378.37518181634	1.71639168763
3	12889	382.40399599217	2.8514489291
3	12949	383.21678195501	1.71213012246
3	13612	390.65458373936	1.7121296533
3	14539	404.74466356793	1.71212968845
3	15000	409.47809638852	1.7121304074
3	15207	412.03813535465	2.30173769289
3	15397	414.64847508879	1.7121310994
3	15695	418.84954636417	3.86034253086
3	15799	420.57055862945	1.7121303896
3	15956	422.79702822422	1.7121307324
3	16254	441.46854170157	1.71213117096
3	17125	474.26501826564	1.71213043818
3	17366	496.86345317576	1.7121331012
3	17584	538.37197250058	1.71213064666
3	17793	543.91262218817	3.26453440715
3	17864	544.16071879862	1.71213229288
3	18192	559.72090564931	1.71213001339
3	18438	563.02638899594	1.71213012246
3	18892	576.15282376139	1.71213024799
3	19130	579.44003211402	1.71213005083
3	19642	588.46296553745	1.71212976905
3	19998	594.03984618116	1.7121296533
3	20610	604.69320364798	1.71213021693
3	20817	608.6018131505	1.71213028377
3	20991	615.10052643464	1.71212980313
3	21281	619.93776089798	1.71213367496
3	22060	638.94540067352	1.7121303896
3	22771	659.36692655553	1.71213062195
3	22894	676.81691270039	1.7121305972
3	23032	680.47110440514	1.71213070852
3	23142	682.67756458656	1.71213043818
3	23761	747.22151714178	1.71213262421
3	23892	752.49035492978	1.71213094154
3	24323	763.49022688517	1.71213064666
3	24610	765.67652160037	1.71213005083
3	25074	770.52498929311	1.71212968845
3	25661	780.84186527321	1.71213028377
3	25848	785.38835759794	1.7121304074
3	26075	791.8276178654	1.71212980313
3	26436	793.64453778063	1.71213213953
3	26773	800.09174964656	1.71212976905
3	27237	815.45952326069	1.71212998231
3	27527	821.08398177695	1.7121303896
3	28014	831.87176046912	1.7121310994
3	28200	842.58108499584	1.71213062195
3	28332	848.7306009116	1.71213107194
3	28560	856.43653853578	1.7121305972
3	28791	862.82911845204	1.71213043818
3	29080	874.69001210966	1.712133102
3	29403	902.62958949358	1.71213021693
3	29641	935.01185996888	1.71213011632
3	29882	940.80181067791	1.71213005083
3	30037	943.56619436121	1.71213161146
3	30262	947.10245187996	1.71213012246
3	30599	951.4891370538	1.71212968845
3	30862	954.68871068528	3.12405710653
3	31038	960.11345368501	1.7121304074
3	31582	968.20997312298	1.71212980313
3	32050	976.18439614857	1.71212976905
3	32466	989.02311903358	1.71212998231
3	33025	998.12092708966	1.71213030543
3	33234	1002.52165890975	1.71213165605
3	33794	1020.08235258027	1.71213062195
3	34021	1026.49451767204	1.71213042582
3	34283	1032.90065763105	1.71213070852
3	34415	1035.55541463444	1.71213107194
3	34528	1045.31311521203	1.71213043818
3	34731	1051.92830856344	1.712130598
3	35331	1083.55387801694	1.71213021693
3	35464	1110.57993467964	1.71213011632
3	35647	1121.06698217641	1.71213344554
3	35859	1125.24542148404	1.71213005083
3	36007	1134.2877004698	1.71213028377
3	36244	1139.23579981601	1.71213012021
3	36903	1148.54845358663	1.71212968845
3	37259	1157.46329580559	1.7121296533
3	37568	1159.64188660415	1.7121307324
3	37847	1168.19335274407	1.7121303896
3	38002	1170.21268087694	1.71213160669
3	38333	1181.61327645481	1.71212976905
3	38625	1191.65800074429	1.71212980313
3	38935	1201.97845840486	1.71213030543
3	39182	1208.14580661294	1.71213062195
3	39419	1210.15149141524	1.71213107194
3	39642	1213.73488334161	1.71212998231
3	39905	1220.84142614116	1.71213165605
3	40503	1245.57332930663	1.71213321252
3	40634	1257.39948983511	1.71213229288
3	40848	1261.90115482286	1.71213043818
3	40979	1277.33596151454	1.71213021693
3	41463	1315.23359629723	1.71213094154
3	41832	1318.63542340087	1.71213005083
3	42245	1330.71997000944	1.7121304074
3	42508	1336.77709254657	1.7121307324
3	42674	1342.77700827357	1.71212968845
3	43086	1346.14843821639	1.71213120457
3	43322	1349.48021759265	1.71213012246
3	43722	1362.25059184585	1.7121296533
3	44399	1378.31571994012	1.71213227305
3	44504	1381.32599182159	1.7121303896
3	44658	1383.42712342068	1.71213062195
3	44778	1386.02082878783	1.71213030543
3	44957	1393.38517834035	1.71213001339
3	45269	1402.20851579747	1.712130598
3	45842	1424.18934308853	1.71212998231
3	46446	1442.92278314325	1.7121305972
3	47018	1480.68488871679	1.71213107194
3	47128	1486.4011638875	1.71213021693
3	47258	1488.42133997555	1.71213011632
3	47390	1491.96112690972	1.71213042582
3	47577	1505.14064061609	1.71213255483
3	47916	1509.76156229213	1.71213094154
3	48296	1520.45788847028	1.80320758375
3	48417	1524.44286845337	1.71213012246
3	48548	1527.93101232477	1.71213028377
3	48793	1530.53565316722	1.71213161146
3	49011	1540.42721653995	1.71213024799
3	49630	1552.77653016259	1.7121296533
3	49849	1560.64458477376	1.71213062195
3	50330	1576.91745625632	1.71212976905
3	50656	1583.3843412115	1.712130598
3	50763	1588.27473245837	1.71212980313
3	51078	1593.08660285441	1.71213070852
3	51305	1596.38735697667	1.71213012021
3	51505	1598.80757460953	1.71213165605
3	51779	1613.54090814574	1.71213043818
3	51982	1624.88047072793	1.7121305972
3	52251	1627.5068148635	1.71213367496
3	52378	1638.02207671097	1.71213030543
3	52985	1664.76393012464	1.71213011632
3	53282	1677.31395081812	1.71213042582
3	53628	1686.77961855961	1.71213005083
3	53876	1693.83922391253	1.71212968845
3	54028	1698.13265396576	1.7121307324
3	54270	1706.44777120598	1.71213107194
3	54498	1713.26540694021	1.71213028377
3	54671	1723.37434985087	1.71213024799
3	55021	1734.31401989846	1.71213064666
3	55369	1742.74789550562	1.7121296533
3	55715	1751.71577581723	1.71213227305
3	56060	1758.35249094353	1.7121310994
3	56278	1762.17336402914	1.71212980313
3	56424	1766.10881004877	1.7121304074
3	56730	1771.39023980368	1.712130598
3	57120	1778.53058840268	1.71213012021
3	57254	1783.87258676224	1.71212998231
3	57600	1802.64013941261	1.71213043818
3	57745	1814.45930931309	1.7121305972
3	58125	1829.08050037141	1.71213165605
3	58240	1830.93386533045	1.71213030543
3	58794	1851.97304000254	1.71213021693
3	59006	1855.84171891755	1.71213094154
3	59281	1864.73591120617	1.71213011632
3	59469	1870.12278292655	1.71212968845
3	59698	1871.86662044328	1.71213255483
3	59941	1881.62729020682	1.71213107194
3	60223	1886.68772094853	1.71213028377
3	60424	1901.84239754054	1.7121307324
3	60555	1904.66430696816	2.46159336846
3	60775	1913.82284327562	1.71213064666
3	61228	1923.87654038379	1.71212976905
3	61704	1932.94505915344	1.7121310994
3	62171	1941.83953212139	1.71213001339
3	62519	1952.36381887692	1.7121303896
3	62980	1964.55218206061	1.71212980313
3	63346	1985.78553649786	1.7121305972
3	63514	1994.97364348305	1.71213262421
3	63621	1997.59080166636	1.71213043818
3	63764	2003.35328520299	1.71213030543
3	64004	2030.25307387627	1.71213012246
3	64199	2042.34064128478	1.71213094154
3	64364	2050.20418324965	1.71213005083
3	64944	2067.18183211482	1.71213028377
3	65355	2080.60423624076	1.712130598
3	65538	2083.61561662726	1.7121307324
3	65971	2097.9778779448	1.71213042582
3	66328	2104.86146022818	1.71212968845
3	66458	2108.35544923944	1.71213024799
3	66857	2113.66299272699	1.7121296533
3	67214	2120.46270051957	1.71213262032
3	67376	2122.21767145991	1.71213001339
3	67939	2131.33081618198	1.71212976905
3	68510	2149.22473850939	1.71212980313
3	68915	2165.77641461812	1.7121303896
3	69076	2170.60612966049	2.01487224826
3	69197	2174.744858203	1.7121305972
3	69336	2189.45802355389	1.71213070852
3	69456	2199.90453914871	1.71213012021
3	69587	2208.99268755506	1.71213012246
3	69823	2216.01641717806	1.71213030543
3	70022	2231.32014989122	1.71213094154
3	70368	2243.14673177391	1.71213411546
3	70938	2265.21406400079	1.71213028377
3	71628	2277.8131708486	1.71212968845
3	71923	2285.23199655354	1.7121296533
3	72431	2294.57640592249	1.71213001339
3	72628	2307.27163389971	1.71212998231
3	72804	2309.57741857917	1.71213011632
3	72995	2314.70292272814	1.71212976905
3	73420	2324.26355729632	1.71213132783
3	73583	2329.62132500398	1.71213021693
3	74667	2347.33776313947	1.71213043818
3	74936	2357.27408379025	1.71213165605
3	75055	2359.91386001692	1.7121305972
3	75279	2374.22630150181	1.71213262421
3	75465	2380.06123676414	1.71213070852
3	75705	2404.35647463202	1.71213094154
3	75825	2410.33097866268	1.71213030543
3	75955	2413.81221569014	1.71213012246
3	76303	2441.08296849287	1.71213028377
3	76450	2444.44507837875	3.0270036071
3	76947	2452.229661792	1.71213107194
3	77278	2457.38325226291	5.17241172209
3	77281	2457.77817938414	2.84132686392
3	77391	2464.49119053681	1.71213005083
3	78011	2487.03597066565	1.71213011632
3	78250	2497.2353956797	1.71213251739
3	78464	2499.56359138052	1.71212998231
3	78751	2502.26770181215	1.7121296533
3	78961	2504.45760404197	1.7121307324
3	79098	2506.36247025146	1.71213164761
3	79207	2510.1911836325	1.71213021693
3	79830	2522.14122990558	1.71213043818
3	80018	2527.35131648588	1.71212980313
3	80153	2535.71703966423	1.71212968845
3	80946	2560.89296859763	1.7121304074
3	81081	2566.07567363653	1.71213012021
3	81324	2574.38226729416	1.7121305972
3	81463	2580.7254169965	1.71213094154
3	81945	2598.089503665	1.71213160669
3	82484	2627.30974187241	1.71213292982
3	82673	2638.92593255566	1.71213213953
3	82843	2641.49032849082	1.71213028377
3	83348	2664.06920308991	1.71213011632
3	83695	2676.71536384974	1.71213005083
3	83979	2678.96918978205	1.7121296533
3	84234	2686.1183148049	1.71212998231
3	84686	2694.03402004176	1.71213043818
3	85141	2701.79028148853	1.7121310994
3	85407	2711.10824046322	1.71212980313
3	85645	2713.65241254905	1.71212968845
3	86047	2717.46112757702	1.71212976905
3	86520	2732.88688725695	1.71213064666
3	86764	2740.55979698223	1.7121304074
3	87378	2776.70686235343	1.71213262646
3	87609	2783.01585105519	1.7121305972
3	87740	2787.9635166649	1.71213012021
3	87980	2805.96567984353	1.71213030543
3	88483	2857.33872099707	1.71212998231
3	89340	2868.05658688569	1.7121307324
3	89584	2871.95334475658	1.71213062195
3	89694	2874.25883234472	1.71213024799
3	89832	2878.96157181697	1.71213043818
3	90283	2888.17173250932	1.71212980313
3	91366	2908.21653568317	1.71213315066
3	91634	2914.22843650623	1.71212976905
3	91850	2920.76416136346	1.71213257722
3	92385	2928.22583692923	1.7121303896
3	92641	2942.02439479307	1.7121304074
3	93127	2953.49086827849	1.71213012246
3	93400	2970.73942344735	1.71213094154
3	93520	2979.46351955043	1.71213030543
3	93651	2987.16013614841	1.71213012021
3	93903	2999.85702584876	1.71213259893
3	94032	3008.05601393	1.712130598
3	94355	3038.98211652034	1.71213292982
3	94624	3044.61814658387	1.71213011632
3	94780	3046.97054930057	1.71213120457
3	94915	3052.92672853821	1.71213062195
3	95097	3055.19512004839	1.7121310994
3	95474	3060.27449716171	1.71213005083
3	95615	3066.01690223193	1.7121296533
3	95807	3068.47610925996	1.71213028377
3	96142	3077.50886526523	1.71213024799
3	96543	3081.5551826942	1.71212998231
3	96895	3091.89293255299	1.71212976905
3	97518	3106.63603443109	1.71213064666
3	98211	3114.78807582279	1.7121303896
3	98521	3127.99996278347	1.71212968845
3	98661	3131.0173405384	1.71213012246
3	98902	3134.45988136495	1.7121305972
3	99160	3141.97981500708	1.71213218364
3	99290	3147.75436851084	1.71213094154
3	99410	3158.66950488148	1.71213030543
3	99579	3162.65810312223	1.71213262421
3	100037	3208.97812576942	1.712130598
3	100256	3219.29091887916	1.71213011632
3	100386	3224.27676758477	1.71213021693
3	100624	3227.32893711825	1.71213043818
3	100760	3236.98706545201	1.71213005083
3	101129	3245.21200945838	1.7121307324
3	101623	3257.89511328319	1.7121296533
3	101825	3260.59511754127	1.71213165605
3	102178	3274.0657067304	1.71212980313
3	102361	3278.06562516774	1.71212976905
3	102983	3284.88761963346	1.71213312595
3	103256	3288.04028229211	1.71213001339
3	103386	3290.4929078881	1.7121303896
3	103756	3307.91107125336	1.7121305972
3	104309	3313.97618555032	1.71213012246
3	104517	3321.43218004754	1.71213094154
3	104699	3323.87327279409	1.82458282103
3	105257	3354.28851577449	1.71213030543
3	105380	3357.04188230765	1.71212968845
3	105536	3366.0034126225	1.71213107194
3	105750	3395.88113630491	1.71213021693
3	105958	3403.36155708776	1.712130598
3	106277	3407.33007120132	1.71213262032
3	106769	3419.97684539931	1.71213005083
3	108278	3468.64383039686	1.71213001339
3	108479	3471.6076120401	1.71213062195
3	108909	3476.14015088054	1.7121303896
3	109280	3488.59141929916	1.71213012246
3	109623	3491.83780106561	1.7121305972
3	110021	3502.35237566043	1.71212980313
3	110368	3529.79133685109	1.71213248631
3	110544	3535.5750411526	1.71213030543
3	110668	3538.2738494295	1.7121304074
3	110796	3543.43872857699	1.71212968845
3	111055	3549.01996258151	1.71213107194
3	111165	3554.93826521197	1.71213024799
3	111418	3576.05382749337	1.71213012021
3	111540	3581.96794270949	1.71213043818
3	111774	3586.45849225574	1.71213011632
3	112125	3595.16584595768	1.71213005083
4	5486	61.77389401785	644.00074705995
4	10118	233.68669915803	620.17831086084
4	14617	405.57779570656	960.03507897319
4	19894	593.01548229127	826.02173619867
4	25099	770.57138285407	8.5445684946006
4	34052	1028.28757298818	218.7197163706
4	41007	1278.00621072647	1951.3259669143
4	46677	1473.03148738156	264.0971170025
4	53077	1671.24902828473	63.908685822668
4	59066	1858.05851397097	820.38853177286
4	66114	2100.79733671602	771.50773693193
4	71360	2274.14885715411	93.218566604051
4	76457	2447.59498721822	1628.2400760949
4	82732	2640.98387717126	92.846470451295
4	88110	2821.48209341588	447.46129448358
4	93778	2998.14489324983	565.31027105494
4	99699	3179.81594673873	3.3155020815989
4	106668	3418.79252175846	835.36145888698
4	111913	3590.36587756439	562.38061593418
5	5603	66.5614384541	914.26327374419
5	10935	244.74539191866	30.061573373588
5	16535	454.67828056404	75.838335633096
5	21748	635.73827486601	13.468598972818
5	28210	847.01846983966	199.93832101685
5	34288	1033.8432835625	1288.8431031966
5	39186	1208.4393603433	442.10186308001
5	46844	1478.97275764485	225.16050329729
5	54145	1704.73564013404	449.13735510363
5	59768	1879.91515913488	660.95041995177
5	64396	2056.32328400371	57.553310707207
5	71149	2271.73450923622	15.682308587068
5	76669	2450.51753072006	459.85601173579
5	84713	2695.082556757	968.05157466425
5	92013	2923.59031907968	62.093353228968
5	97658	3109.67083505508	471.79105061218
5	105414	3364.29128155056	51.574622150324
5	110878	3547.30783150957	804.1633895867
6	5737	178.60197436262	106.20363170822
6	16918	472.55288782746	495.45299508037
6	23038	680.96543414838	1070.3744976024
6	28688	861.11698801386	504.85865469366
6	34427	1043.60098477385	1437.5643144237
6	40693	1260.18902438468	1095.0217830551
6	46146	1434.92792723558	42.134137716248
6	51573	1611.82877770756	1093.8444653247
6	57497	1800.92800897443	615.7256172556
6	63516	1995.87867122818	197.55370232879
6	68949	2168.59125741223	160.7751877087
6	74405	2345.62563270129	260.36107268995
6	79622	2520.4290994674	628.58140668945
6	84477	2692.32188960358	110.14230612679
6	89728	2877.24944137879	225.26955599915
6	94972	3053.55277390185	344.43263288514
6	100470	3225.61680668007	797.10486752061
6	105838	3402.31683292289	176.52624363254
6	111439	3580.25581227131	252.69469338269
7	5790	178.6718862634	153.76984118856
7	12603	380.64238102712	933.7517270485
7	18039	558.00877563592	456.81405095733
7	24752	767.91397005108	212.25291568808
7	32497	994.68445481334	40.375012599002
7	38529	1190.43253502837	260.49918596782
7	44802	1391.67304832696	726.49570627047
7	50232	1576.53556990406	166.5255487268
7	55460	1748.3589848272	132.72909280246
7	62064	1940.127402108	670.3978142888
7	67216	2120.50554144652	760.18988365954
7	72225	2292.8642759091	183.93201083498
7	78100	2495.52326316231	1205.1965765914
7	84879	2697.55814685874	16.943621553521
7	90075	2884.81660652731	1313.5540109095
7	97548	3108.0271267854	20.774807521463
7	103097	3286.32815227872	424.55923846196
7	108173	3466.93170038347	257.87779752268
8	5843	179.18531176954	327.5936693358
8	11566	350.85476840795	25.960413034905
8	17738	542.44858650574	1022.870462313
8	23393	720.00250702673	147.35876911008
8	29198	893.25555581713	1384.1068339157
8	35016	1070.79534704994	172.06171952108
8	40512	1255.68735754223	602.79765296116
8	46093	1434.25198903129	777.79618233713
8	51626	1612.51886118116	28.355425196339
8	58262	1833.83991060978	760.51148253201
8	65235	2079.5468515801	38.623295966792
8	71096	2271.50459592444	257.02892511877
8	76615	2450.04585627779	553.16027131272
8	83378	2666.12218623024	38.913343764006
8	91909	2923.13423823978	438.04780936521
8	97153	3102.29771311084	631.28053000895
8	102985	3284.91919531971	1243.7024004616
8	108534	3472.49637292883	457.96528293636
9	6046	180.55526942729	195.61876421407
9	13638	391.0265180105	127.55057564498
9	19377	584.07752688389	112.69861981224
9	24167	762.35038716915	1461.1551390612
9	29675	937.74873517008	1260.2746966188
9	36023	1135.49614361527	87.117605819511
9	41680	1317.84239077717	205.07206892901
9	47927	1511.81633241689	301.67880791328
9	54920	1733.89380697954	1539.8463962802
9	60857	1916.97400108277	195.37402116098
9	67460	2124.63873650673	89.541976879758
9	74346	2344.23913521979	169.23243808943
9	79569	2520.3200141988	8.7536864863737
9	85310	2711.02318230984	1420.4424793688
9	92428	2936.5294827681	1189.0478399843
9	99808	3201.91335986525	1049.2905941638
9	105545	3380.28245117707	102.89239872394
10	6099	180.80788321671	1317.9505911962
10	11781	361.56542578157	245.82980996123
10	22908	678.75897369662	192.37940455524
10	28447	856.33156967731	221.0324574519
10	34161	1031.18852692253	586.15803413373
10	40350	1243.86119609411	440.24581451729
10	45499	1417.04937868321	34.326818955976
10	50900	1591.37447214589	632.58720062915
10	56801	1775.75701704391	996.60659590867
10	62599	1953.16456666684	774.15709527408
10	69215	2187.74589284537	357.82922157174
10	75342	2378.34910605562	257.4290783998
10	80563	2554.64546750983	1090.8006093807
10	86553	2737.6924533697	1053.3403699742
10	91373	2909.58845083975	16.480637779816
10	97898	3112.44291029844	798.22124910222
10	103930	3311.52225852759	139.83486922562
10	109170	3487.51745425719	505.2083874497
11	6312	182.60896030988	554.52165541053
11	11728	360.38372411928	443.76246175407
11	17868	545.12441614428	528.14760764267
11	24222	763.41079064444	50.561126100602
11	31433	967.9773212469	3028.3492993712
11	36265	1142.12376348659	611.25814948164
11	44016	1366.03898402726	3.4886577612722
11	50357	1577.1967456562	262.95557467634
11	56605	1769.94118191724	318.69360385825
11	62203	1945.77685250557	369.77574535472
11	68026	2134.11817002037	267.84095467907
11	73294	2322.55142596849	269.10724426916
11	79677	2520.80484349711	423.56832048929
11	85153	2708.31898536682	591.42917396794
11	90319	2890.74688858597	1.7684424826717
11	95939	3076.33840905923	374.62768582467
11	101966	3265.39618295409	614.2282458861
11	107626	3449.75990151215	1134.2224458721
12	6366	183.14833938553	140.50166756259
12	16642	457.19684497918	201.02747426793
12	22376	651.26517858193	832.78809089728
12	28821	868.18839391521	808.4060738415
12	34903	1061.38356686588	1040.6015016249
12	40185	1239.35491738507	690.73379504224
12	45389	1411.47788986031	353.74919512373
12	50791	1589.11616606827	1368.7190625231
12	56446	1768.01706410911	296.37133665782
12	62311	1948.56669451396	106.99667312661
12	68140	2137.17045588676	546.71735610461
12	73085	2319.23541476346	170.85194410484
12	79454	2515.06993495015	159.83211408087
12	85489	2712.09967464228	289.55674675187
12	91854	2921.78992298939	779.13695688468
12	96927	3093.55776668037	3086.1259352742
12	102551	3279.89008642529	172.85308899639
12	110051	3504.18984228234	89.678624728122
13	6566	186.84695863369	23.339646557733
13	12782	382.18289024996	113.94638376497
13	18272	561.67880937949	682.26662991722
13	23611	745.50938451757	1013.4226307517
13	29438	931.87329386552	65.496242991485
13	36129	1137.5236696958	111.80178909592
13	43855	1364.17529505085	2864.4925456616
13	51136	1594.67522685646	1094.6161384079
13	56907	1776.81845828247	282.83631438287
13	63364	1993.26151085884	156.4806374306
13	69346	2198.1924090285	389.84554884975
13	75076	2372.5141688776	493.67500756472
13	80968	2564.36354351632	1135.0476946829
13	87627	2786.25138654469	62.418092030113
13	93541	2985.4480060282	1054.6729282824
13	99428	3160.94597049802	234.91658378184
13	104877	3334.10716449741	1083.9409383105
13	111308	3574.34169737316	111.61354612074
14	6620	187.28073035111	1253.4771273294
14	12548	379.55254706307	370.8781470695
14	20895	613.38839663151	837.31895147402
14	25873	790.11548806227	53.542500372826
14	31278	966.49784331985	63.124044599286
14	38476	1189.94587094116	828.69948847187
14	43622	1361.473527686	3136.0847059229
14	50665	1586.56260265524	149.20968636222
14	56124	1760.46123422601	2288.8626047538
14	62884	1962.84005225748	1198.683972702
14	68359	2147.51260870626	898.75161314512
14	74003	2339.41307115121	2.0089526846171
14	79915	2525.63918668275	1799.913406579
14	85206	2709.39611066009	415.35539134936
14	90131	2886.45960270619	739.43814118348
14	96694	3089.77942419551	183.37077264502
14	102082	3272.35357692727	427.04532797932
14	109919	3500.6402458573	386.49728687586
15	6674	187.6180688646	375.84464212929
15	11675	359.8596931292	915.50285561235
15	17484	536.65984185392	444.18333640593
15	24113	761.77809623851	272.26586178589
15	31225	966.32163617976	926.97404641525
15	36319	1143.16523020567	716.49436600723
15	41984	1328.93351822679	237.42444070118
15	49267	1550.26615671057	177.07699996696
15	54866	1732.6018892518	492.33883946662
15	60673	1912.11071262896	98.262943176762
15	65716	2094.80867741435	130.86980157428
15	75129	2373.34565369313	664.32021436143
15	80616	2554.80569265998	1566.2875484822
15	86415	2731.17475661029	113.18727263432
15	91215	2906.50440253251	1043.2041659233
15	97361	3104.92390378443	386.62704148976
15	102497	3279.43194563047	1667.8810577191
15	107838	3452.94211726693	609.29835406036
16	6906	189.64488310982	258.57100499274
16	12176	371.40335621357	2150.2606134684
16	19265	582.33577306636	337.33123866811
16	25272	773.66545032093	436.43504273322
16	31899	974.48720316634	539.37416352202
16	37388	1157.95171542143	424.51197037076
16	42265	1331.54776947068	1276.4547990174
16	47582	1506.98662792422	260.91371612299
16	53422	1684.82291020405	449.35263409541
16	59368	1868.8197212351	335.67122182009
16	65554	2088.01184828216	309.64096042093
16	71203	2273.18049922218	345.89792682649
16	77140	2454.93685252022	379.74950682577
16	83775	2677.75376922052	709.54162668562
16	90426	2891.73955883029	701.74382621305
16	98675	3131.65603454662	57.791419505832
16	106013	3404.23645042842	877.35290806026
17	6960	190.18155993929	423.06469727677
17	13024	385.26794581593	132.62681626261
17	17986	557.86274040725	75.57159130884
17	23502	731.44197221836	310.29055922652
17	29909	941.85406274975	734.33040341683
17	35653	1123.19395602308	147.89520425828
17	41232	1308.36894854704	3419.9704766969
17	48617	1528.82352155576	88.608685305147
17	54277	1709.26053360546	385.57552065976
17	60061	1885.79288613702	678.02664908559
17	64502	2057.61813361304	832.44846642416
17	70215	2241.43459765845	579.75766688981
17	76952	2453.00804329137	176.05531280828
17	82334	2626.59782339404	102.6330031604
17	88831	2863.09510925175	1037.8616143421
17	95159	3057.47052100547	1712.4074142969
17	100842	3239.79894948831	12.512877542191
17	106863	3428.27150409248	570.55216934281
18	7124	192.30059034976	158.59282466393
18	12052	368.79842885678	1093.9917415866
18	17611	540.64808778102	352.05154017811
18	23955	758.22772566948	737.12958265184
18	29491	933.29972985256	556.72174677628
18	35366	1108.86780456332	283.68429616137
18	41466	1315.29794344028	1116.7757074362
18	47156	1486.70920985923	1949.2862515632
18	52829	1663.05180000832	334.22489785517
18	59181	1863.02378108985	426.64683078965
18	67058	2118.75056789925	440.44991301465
18	72650	2307.86528846285	876.21170648187
18	77860	2485.32384054933	150.23956221799
18	83250	2662.35707297359	231.02503208454
18	88621	2861.91982471247	666.31053170728
18	94469	3042.90601646755	596.40738692515
18	100155	3217.57878876284	167.42744759575
18	106071	3405.617938581	496.14977510761
18	111567	3584.74636213942	420.5872411532
19	7271	196.93685628224	71.540761173679
19	13297	388.94245408606	719.98337039567
19	19837	592.32771652786	155.56152809837
19	24914	769.07884155033	46.495935361443
19	30623	951.56465357875	296.43635176676
19	37052	1155.75116615229	412.83939048619
19	43568	1360.53846219255	2174.1962428604
19	49373	1551.06440050929	248.96140955145
19	55164	1741.03576585232	1464.2402343679
19	61715	1935.12460703711	15.970691736777
19	66700	2111.95086307369	238.68951734064
19	71719	2283.51986690024	704.34248528432
19	78538	2500.55557215885	217.45515548042
19	83721	2677.25706012875	116.49029146291
19	88778	2862.94870296047	835.00314844566
19	95515	3064.30477257863	144.84153774121
19	101468	3256.18298362989	222.96143356322
19	107573	3448.66997329246	217.31111261465
20	7325	197.04764506137	121.01613107673
20	14382	403.03253387948	1166.8097153877
20	19029	578.67888652966	622.09856643305
20	24861	768.81285960466	785.02593338671
20	30337	949.77700736535	1310.4237971676
20	36741	1146.83632389818	516.85081927035
20	42521	1341.06487858512	1282.4145852773
20	48042	1516.36844942463	33.727040412881
20	53774	1692.12709422408	143.56007290488
20	59313	1868.4106532381	505.64740615196
20	66224	2103.14933053973	2124.8447466491
20	71520	2276.10104116015	422.48053743565
20	80053	2534.00490997578	212.52728804473
20	85435	2711.9402828606	1831.5438406119
20	92659	2942.13553308328	6.9328672587078
20	98421	3126.28783309502	1142.0272449459
20	105273	3355.3297526192	702.41466598826
20	110694	3541.72659888854	111.13192877912
21	7378	197.4212028792	150.4317603309
[...]
28	34558	1050.21617796544	439.38861638423
28	39917	1227.56847179277	717.26667176769
28	45147	1400.49638519947	187.78503960244
28	50530	1581.6722106135	621.48978759814
28	56501	1769.67810920568	1042.7333619139
28	65182	2078.89210564276	163.04267150851
28	70619	2263.3481453622	27.635691484042
28	76316	2441.41807477165	892.27080633543
28	82009	2619.64408513768	585.2670080552
28	87761	2794.80181984414	654.64031222797
28	93912	3006.343883332	982.84876418643
28	99915	3207.26599517142	140.71442262156
28	105785	3401.64942648976	164.50983405384
28	111674	3585.38767778457	1715.0610109039
29	8347	208.72891196786	292.93229270345
29	14151	399.72478435071	42.506623041077
29	20412	602.98107343105	1368.3402505561
29	29307	900.91745927665	154.82492230129
29	35235	1081.84174780001	358.37447745829
29	40883	1275.62383129761	478.47237084773
29	47032	1484.68903367057	889.70966982032
29	52617	1658.14477677471	2657.3989656934
29	58646	1850.26090978561	68.766124243127
29	67789	2130.35367850707	385.18489514251
29	73432	2327.90919478705	237.91227913034
29	79110	2508.47905341557	390.06389210644
29	84132	2685.37556229973	758.47110684305
29	88884	2863.33780662337	1159.6937112557
29	94205	3038.04894178362	449.83474126075
29	100287	3222.56463736784	999.7615690964
29	105654	3394.16900608798	2061.0432832168
30	8400	208.79118147885	1566.0179789323
30	14674	406.01855738376	151.90596836504
30	19670	589.21023642602	486.52396220863
30	25926	791.19815070414	310.67200908592
30	31119	965.2652420362	244.0382408903
30	38068	1173.49968652216	128.28005987238
30	44140	1371.87773822604	280.60849715273
30	49320	1551.05845039619	62.151792043475
30	54761	1729.27538876368	1138.8824960223
30	60564	1907.18542969904	427.03751543771
30	66542	2110.23762649326	669.9741681096
30	73666	2331.35595547225	455.53943882235
30	79345	2512.86056185883	114.54016958424
30	84312	2688.96614985481	164.80738735591
30	90770	2896.25938039202	208.60968960419
30	96579	3083.78905828262	28.57288924086
30	101523	3257.11320703288	52.474964307561
30	107406	3441.61724723103	7.2675509543995
31	8504	209.37977620539	211.2349075485
31	13691	391.23205584844	486.24101218471
31	18792	574.4406935134	54.844149022079
31	24456	764.49871652492	65.291960256663
31	30497	951.06990800573	542.31759533427
31	36478	1144.81986212041	2105.929517567
31	43749	1362.91124647613	1382.2070664609
31	48863	1538.71508629196	1503.0590667207
31	54521	1721.66221960288	587.28792818392
31	60428	1902.2027135997	130.58931684027
31	66358	2106.64331899145	411.91076009154
31	72068	2291.74782122254	290.77345832214
31	77913	2486.10348978369	2.3082950873287
31	83543	2676.64644643255	2.9258451376922
31	89591	2872.54670209673	193.16656080956
31	95886	3075.79673501724	2093.1058235937
31	104824	3333.25526574963	288.05667294785
31	111068	3553.22613496398	272.35811744704
32	8684	210.64394404693	265.65110088308
32	17216	495.15132007456	136.62568943253
32	22781	675.10478210319	311.84196750035
32	28341	854.72440793858	395.19538635681
32	34798	1057.70856295751	699.71399121223
32	40640	1259.75141883574	119.99779353913
32	46333	1441.21065254605	1191.5345108722
32	51869	1623.16834013073	72.406998377791
32	57632	1812.74717871589	176.69307560948
32	63233	1984.07340590066	508.02056809225
32	69081	2173.0327276058	390.96499909097
32	74938	2358.20172941972	480.38269530501
32	81211	2572.67013669696	112.92316804332
32	87495	2781.30372045799	508.01945142395
32	93148	2959.77396089722	19.357186378976
32	98732	3132.74775076775	338.0269465372
32	103641	3306.19894065616	138.21723220272
32	109401	3490.12567046841	654.58003465811
33	8854	213.09368598169	658.53690674179
33	13351	389.53574302231	1003.5035719096
33	21694	634.61552966322	783.32790534389
33	27428	819.85665713942	1403.8157129315
33	32755	996.40879678423	1532.302060801
33	38825	1200.26632809943	448.48162865588
33	44662	1384.3086984824	388.38406069361
33	52268	1636.30994640554	1240.231499893
33	58127	1829.22173502502	1755.6391127274
33	63654	2001.64115489756	182.0361701336
33	69661	2214.30428687263	244.23564458293
33	75715	2408.61884835725	611.95630078304
33	81473	2589.81150798171	13.710294009658
33	87870	2804.2535495381	788.18506852492
33	93410	2977.751389245	115.6493949792
33	99300	3156.95737457605	363.03351558117
33	105146	3352.57638546906	294.76505420533
33	110431	3533.86291084717	744.54096265013
34	8912	213.76217388512	1494.8292498435
34	14015	393.37347773309	155.93123033712
34	22429	651.83819212054	178.26044944941
34	27719	824.03169703864	2790.3223343641
34	33238	1003.22297634618	403.27514068898
34	38363	1182.8289226397	1077.2428651787
34	43462	1356.71249961062	103.01858091167
34	49040	1541.48568647858	537.31748525931
34	55781	1755.74157442607	68.699426395543
34	61427	1931.04497911427	397.82612256181
34	66489	2110.136865391	645.95792441392
34	73719	2331.36134996621	384.6622420839
34	80398	2549.12687629386	33.440988470819
34	86201	2726.78824681013	92.172011664196
34	91728	2919.05202878624	259.18783289092
34	97418	3106.48561117062	66.169396233307
34	103425	3296.05985721369	436.89711184206
34	108356	3470.21694958502	1057.3762905265
35	8965	213.91360685479	181.54179734201
35	15970	429.74814187913	1185.4341992913
35	20306	602.32735015875	541.79525723696
35	26103	791.9324056411	1041.4762990743
35	32138	978.92987117019	328.2954225921
35	38015	1173.23253044434	92.656756569335
35	43154	1348.4286756442	1889.0314069572
35	48810	1538.6563319153	156.37521039624
35	54574	1722.38122244148	672.2837383488
35	60802	1915.74188929948	173.70187856783
35	65999	2098.40166134102	1346.893477637
35	71772	2283.82101143943	61.273124619188
35	77416	2465.10460560966	1436.6158207201
35	82551	2637.21380041613	224.02190814111
35	90373	2891.27496355201	200.08427605203
35	95695	3067.77155349445	581.87852082376
35	102391	3278.2084819861	864.13135225607
35	109346	3489.32191373808	301.62544354466
36	9213	217.86879343335	89.438997980424
36	13510	390.48673021739	645.64276813044
36	18922	577.72790206319	84.739543450207
36	24351	763.96439154954	631.04541819606
36	29731	939.08968062708	644.51066132308
36	35706	1123.53329143321	595.21716353945
36	41575	1316.92329335004	759.85911011877
36	47427	1503.42850806126	631.00507864192
36	53475	1685.06748850878	263.48836488516
36	59493	1870.15448788845	416.89865742668
36	64265	2048.49205319882	353.3569137335
36	70486	2252.69143934119	6.691663426022
36	77292	2462.77906048598	195.71410022491
36	83490	2675.00323379891	213.39302468172
36	89912	2881.01859972132	100.22377246439
36	95267	3058.56236711088	649.12135554391
36	100661	3235.27493540118	297.96986162688
36	106613	3418.26471534848	992.91874256382
36	112024	3593.45371590685	1903.6900562256
37	9349	220.9919709925	241.98330535376
37	14835	407.76596598112	226.88972943878
37	20699	607.07239092533	18.979587739601
37	25736	783.67622719054	361.21183605887
37	30879	958.40132327761	320.17749508632
37	37105	1156.19646299861	495.38624864875
37	42037	1329.00783960204	278.01341803341
37	50954	1592.20158373256	1628.6627588727
37	56314	1764.39667964137	697.29450173012
37	61772	1936.38220835566	197.75495277951
37	66757	2113.51377420142	353.12204146415
37	72015	2291.05764191538	1498.8170476355
37	80831	2559.18083819023	711.32984856191
37	86606	2738.84766657483	976.78197969477
37	92534	2940.31226438567	2370.0679430883
37	98114	3114.66252641748	241.689752142
37	104034	3311.86980042295	804.81860100038
37	110558	3536.5617190221	678.88306811633
38	9481	224.13009213696	904.25990875171
38	14204	401.28859521555	1050.1501184258
38	18976	578.63137253115	92.382499824992
38	24692	766.84862551337	1125.638657713
38	30932	958.61766970515	216.24395331471
38	36947	1152.91028363303	189.05092128951
38	41931	1328.35583501926	246.11690655899
38	47636	1507.31788224893	1696.3980787163
38	53653	1687.06284536107	937.1924327795
38	59950	1884.54984443814	85.982871596947
38	68254	2144.43959866471	396.28573762148
38	73138	2319.87270151921	293.0441506281
38	78967	2504.65033860385	580.16492645411
38	86953	2755.81167627688	129.51074847923
38	92716	2943.18093653095	89.563014737008
38	98309	3119.35345580455	376.15562490584
38	103875	3310.03416198802	71.438594319635
38	110218	3528.51933338926	986.20908380478
39	9535	225.0057165645	179.93108748949
39	15508	416.17440260328	1722.3843145896
39	22650	657.65479593358	347.83013607614
39	28079	840.86895437389	234.44287642472
39	33568	1018.37022195832	119.93091654532
39	39060	1206.43367599099	170.83284742099
39	44532	1381.71499279873	311.59681974126
39	49728	1558.93245415181	576.89758437192
39	55726	1754.99277981668	1057.7332113808
39	61374	1930.31506665414	295.60093091456
39	70088	2237.83994534011	5.8587241817497
39	76562	2450.03855952461	321.81274177104
39	82917	2644.87058155605	374.54679743762
39	89461	2870.24121413463	831.84330962044
39	94794	3051.21459791626	331.97849050603
39	102773	3283.17548650751	348.68152503583
39	108303	3469.89548141815	493.61658605033
40	9640	226.55636456603	289.36436703462
40	17375	506.17242081256	494.90047137543
40	23173	686.36214227386	1721.6858642204
40	29089	883.53234131	113.07346983343
40	35123	1075.61308239977	850.632405314
40	41120	1282.67937289925	1546.656511266
40	46573	1470.85116653027	1220.227498212
40	52399	1645.54836508077	2184.6684642292
40	58591	1849.94917099793	140.84416078161
40	64957	2067.48503467857	223.21118264224
40	70379	2247.32216167946	452.53766531028
40	76087	2437.72770288724	204.03315435406
40	82164	2621.69136040962	288.98889156407
40	87998	2808.82286404343	521.75828139662
40	94043	3029.90042839608	212.22745354359
40	100049	3213.38634532185	494.41491644942
40	106403	3414.88761624462	7.319117410117
41	9832	230.86161059472	410.52319097174
41	15021	409.73639766176	197.86938585372
41	21399	626.43293951778	40.020536388875
41	27080	813.74739327838	869.14829050425
41	32361	987.31098905127	1341.3276746451
41	39531	1212.0227533593	1294.2904896311
41	45735	1422.47721310622	396.39793062606
41	51520	1610.81787273138	231.5123847251
41	57146	1782.16045677993	469.64330419548
41	62655	1953.76462611519	523.47929757428
41	67678	2128.79186335221	976.96649342823
41	72473	2305.5595039174	849.82131757943
41	78252	2497.85146139821	77.825607626597
41	84079	2684.40618482259	551.19552284066
41	88328	2855.62659101476	3191.4808352277
41	96381	3079.84305271189	53.215601075735
41	104520	3322.04868997306	533.93639523548
41	110165	3528.07920436478	303.37690074928
42	9886	231.90137539119	321.9622664634
42	14436	403.81742661129	273.94947091556
42	20359	602.84497159659	540.60378890361
42	25386	776.34566249902	536.52662441595
42	30284	949.2640440669	184.836095664
42	39674	1216.53948731763	2553.3564078401
42	45040	1398.36306977628	651.1293227956
42	51192	1595.06518655403	127.16257750946
42	57283	1793.64737038434	104.81107605285
42	63068	1975.01443602928	48.616298416517
42	68713	2162.30989108474	179.45262069441
42	74565	2347.16056292932	915.6124797502
42	80237	2544.25972910891	274.76695912535
42	86094	2721.6144026539	24.352988287038
42	90940	2900.57268637281	318.40448473853
42	95992	3076.85590788953	145.50229092662
42	101140	3248.76596502524	71.652268405272
42	108067	3462.86342796863	387.18545717728
43	10012	232.91407646381	694.36623536164
43	16314	444.82278143599	33.998652915403
43	21292	623.73627730182	86.575794520369
43	26812	807.00409263228	125.38671720622
43	32915	998.02358747329	193.19337789382
43	39239	1208.52499196795	544.68125570581
43	45977	1427.74563410555	905.82992691886
43	51994	1625.73568963336	164.57567223706
43	57816	1818.58261274139	134.08850003442
43	64713	2060.46698267174	261.17417586954
43	70672	2263.35246325763	931.75354277496
43	77741	2474.99023116864	42.172939495218
43	83138	2651.00673560805	249.53164239535
43	88674	2862.49996376988	765.35081655591
43	94415	3042.23190506645	729.41922587057
43	100789	3239.34188899505	340.67609885102
43	106456	3414.98096173553	57.052608214328
44	10281	236.47126302258	397.67239712097
44	15270	414.03175389581	840.13952309528
44	20078	595.10767713082	861.81606022051
44	26314	793.59959306702	84.250555617488
44	31789	973.36294665898	1352.819484696
44	37158	1156.49029430205	974.10635468283
44	42750	1343.71992508909	114.42167655871
44	49157	1545.36743053664	474.27959861136
44	56069	1759.83137780659	376.63766028119
44	61901	1937.27615635429	364.73704135808
44	67270	2120.72909258681	207.39046741638
44	72895	2313.03413798411	191.51091134629
44	78360	2499.00664005956	2078.156668252
44	85726	2714.26899209611	214.7520208573
44	91102	2903.76806057684	205.52818662133
44	96327	3079.5582473237	766.56165925855
44	103767	3308.1820364586	323.62900436958
44	109454	3490.16221742187	8.0441223921484
45	10338	236.99452083718	15.257793579938
45	15213	412.93634398939	1066.2485328292
45	21640	634.02689175167	131.42559888635
45	27839	830.15962936972	743.09488311152
45	33461	1017.32945853821	922.88723596621
45	38953	1204.52833118204	474.05498136441
45	44855	1392.93195814332	278.80939029414
45	49968	1572.70610858021	207.22705073438
45	55834	1756.64035984413	111.94458429214
45	61480	1931.23292805404	191.58613983128
45	66940	2115.53561416873	927.2287277708
45	73487	2328.96463890803	78.043844705781
45	78644	2500.85239907819	182.92007964067
45	85013	2700.07815038913	2253.9012886138
45	89856	2879.64347188436	84.118688137209
45	94919	3053.48298894899	448.78000604052
45	101193	3248.81335107399	1331.2206459864
45	107134	3435.50727942226	395.7505986432
46	10448	238.26550603469	339.95679444631
46	15399	414.98920383331	160.75614067676
46	20645	606.88968286673	138.25765529419
46	25494	779.12973498944	326.66968565763
46	30393	950.68709475232	66.275011529772
46	35896	1132.57557018603	2545.967761751
46	42574	1341.93568439537	53.113734149744
46	48434	1526.218882041	248.52476518804
46	54384	1711.55327665644	332.75404785331
46	60004	1884.97559066476	879.64726211336
46	64831	2065.46970183105	300.95027686931
46	70725	2263.50193371702	1601.491749895
46	76140	2439.3708382091	1005.0929435474
46	82675	2639.77819820705	59.608035638734
46	88381	2856.07401698188	449.40557263869
46	95639	3066.76397897619	418.90496978165
46	101839	3263.66796750074	35.755992399396
46	108810	3475.71364229508	537.21165468521
47	10501	238.34627218101	149.75822409472
47	15696	418.85842823985	90.567157810428
47	21907	637.23327028392	360.17580781422
47	27373	819.37185138735	1024.6697155202
47	32550	994.75741685827	564.67407283008
47	37699	1166.48122235447	202.65534749453
47	44404	1379.61386143199	75.313913294746
47	50021	1572.97525109262	199.69585721825
47	56854	1776.45594674793	1430.5831137475
47	62418	1950.65168848732	1791.531972185
47	68817	2164.06428422852	538.30763885886
47	74056	2339.76872770469	584.47839694034
47	80184	2544.04161145169	1356.7566580311
47	85785	2715.43987683855	748.37285650009
47	92230	2926.51370653963	613.78416974973
47	97952	3113.07594543319	1487.799436032
47	103281	3288.7807774985	198.04674457964
47	108646	3474.42802049094	1071.8863414656
48	10743	241.94643039116	1387.6657003563
48	16756	466.04229681005	414.26190568926
48	22093	639.94638232434	129.14620717622
48	27555	821.52083793563	496.29209320467
48	32603	995.20742380324	695.41389704755
48	37874	1168.50054927025	1715.6469010108
48	43210	1349.17915225444	302.08922543978
48	48562	1528.19735454393	170.01560312815
48	54037	1701.22897066593	333.68583151437
48	61255	1924.25759480351	146.52964500058
48	67515	2125.51395220034	158.43369983327
48	74511	2346.71458108922	712.01892163469
48	81817	2596.37737205831	288.98249063144
48	87120	2771.40111102957	1011.7181388832
48	92895	2944.9887099469	765.14188266752
48	98914	3134.79380329754	131.25008301634
48	104701	3324.20504997542	286.70727621337
48	109760	3496.46696044954	592.65386394047
49	10877	243.9304508352	1847.8285576631
49	15830	421.08489749182	247.86779967978
49	21532	630.3770199275	254.9833140278
49	27024	812.56151408552	150.78511588292
49	32253	984.19307162334	106.20144438014
49	37335	1157.92975587175	740.7300937693
49	42386	1335.06496181417	267.4538182256
49	48169	1518.65468088653	55.729079944699
49	53905	1696.42052323336	135.57494734831
49	60304	1900.13026680814	944.16500588498
49	65412	2081.90348589486	76.624455179753
49	72526	2306.54355781564	72.228054305195
49	78829	2502.74547330957	168.30781753484
49	84584	2693.67869428076	571.67766714326
49	89204	2866.34445615329	1686.6838619232
49	95214	3058.34970407264	120.82932748193
49	101003	3243.49987872598	348.03535672175
49	106916	3429.41261550259	214.7054068446
50	11113	246.4575229906	1.71213107194
50	14300	401.43691456764	1.71213021693
50	21503	628.14506950009	1.71212998231
50	32753	996.39658733073	1.71213251739
50	45622	1418.76150939173	1.71213070852
50	46298	1436.64005767376	1.71213043818
50	48145	1518.08057911308	1.71212968845
50	57926	1820.2855928749	1.71213012246
50	61875	1936.83673669041	1.7121296533
50	70209	2239.55207596206	1.71213062195
50	70587	2254.40356939202	1.71213005083
50	71064	2269.41726083568	1.71213042582
50	74207	2341.12520095434	1.71212980313
50	81636	2591.52363828714	1.71213030543
50	84987	2699.27027687213	1.71213001339
50	90603	2892.4590199138	1.71213132783
50	92817	2943.84766277173	1.71212968845
50	93261	2961.48609149442	1.7121305972
50	97761	3109.73925679879	1.71213001339
50	101953	3265.38009778451	1.71213028377
51	11113	246.4575229906	1.71213107194
51	14300	401.43691456764	1.71213021693
51	21503	628.14506950009	1.71212998231
51	32753	996.39658733073	1.71213251739
51	45622	1418.76150939173	1.71213070852
51	46298	1436.64005767376	1.71213043818
51	48145	1518.08057911308	1.71212968845
51	57926	1820.2855928749	1.71213012246
51	61875	1936.83673669041	1.7121296533
51	70209	2239.55207596206	1.71213062195
51	70587	2254.40356939202	1.71213005083
51	71064	2269.41726083568	1.71213042582
51	74207	2341.12520095434	1.71212980313
51	81636	2591.52363828714	1.71213030543
51	84987	2699.27027687213	1.71213001339
51	90603	2892.4590199138	1.71213132783
51	92817	2943.84766277173	1.71212968845
51	93261	2961.48609149442	1.7121305972
51	97761	3109.73925679879	1.71213001339
51	101953	3265.38009778451	1.71213028377
52	11130	250.61451580373	1293.6399042329
52	16429	450.76535312231	335.38824603367
52	22323	651.1978138275	140.23758569413
52	27892	830.85210089043	516.87153841505
52	33356	1014.57200074093	816.32760983907
52	40130	1238.11352336216	193.67906761867
52	46464	1458.53437576106	876.5120811823
52	52452	1645.96881198165	120.43801269435
52	58484	1844.44898547649	352.66651348294
52	64078	2041.58835646944	875.31632115272
52	69608	2213.24843264483	356.0260321334
52	75475	2389.99519014306	290.82923650591
52	81095	2566.47672384504	1000.3595276589
52	86793	2751.07565889362	491.0091375692
52	92122	2925.15983118367	408.79856669622
52	99035	3140.26768282344	116.94602070203
52	104396	3320.97713117341	427.61882395593
52	109707	3496.33727689801	2302.6443146571
53	11236	254.94714768709	255.27076259599
53	16132	440.9535587235	159.77003116801
53	21022	617.08935923713	103.13226148917
53	26916	809.54709471213	277.96599641106
53	33514	1017.96152248896	246.58425910088
53	39292	1208.63545005786	22.402546161883
53	45283	1407.46236057376	1207.2239786371
53	52882	1663.24704964191	191.2117908773
53	58883	1855.36072226364	59.290086100667
53	64449	2056.7220073585	1544.4837227163
53	69901	2230.01336804351	1059.9061196378
53	75975	2416.00553537113	281.71002447429
53	81704	2592.77898688406	417.5235294922
53	87382	2777.42428432025	873.12775540271
53	93672	2994.13523388413	198.65262075392
53	99590	3167.56886506496	741.0755834042
53	105042	3350.86281215139	819.02951402084
53	111199	3567.56401574948	787.5465071439
54	11343	256.90931684256	1173.056343115
54	16863	471.42049730081	1917.5263115171
54	22209	643.65694485438	678.15678922785
54	27265	817.54274573982	237.35470499103
54	33800	1020.36609336831	414.06226242618
54	38705	1192.22915858848	1356.5284090874
54	46789	1478.0354147643	577.48501915713
54	52670	1659.71368328457	61.044122404818
54	58370	1836.88304874438	80.628027540629
54	63785	2019.85429725023	1536.9552552319
54	71666	2282.65464781155	546.77645138405
54	77585	2472.95229130759	438.01934218816
54	83596	2676.70276933414	795.61534520611
54	90479	2892.03900208759	795.24224410441
54	97841	3111.70082043823	2429.2215171522
54	102826	3283.41559620131	845.19323208601
54	108755	3475.37427173724	970.68448239331

