version 3
run N50-27-20260518-02:26:55-159863
attr configname N50
attr datetime 20260518-02:26:55
attr datetimef 20260518-022655
attr experiment N50
attr inifile omnetpp.ini
attr iterationvars "$0=\"avg\""
attr iterationvarsd avg
attr iterationvarsf avg-
attr measurement "$0=\"avg\""
attr network test2.LoRaNetworkTest
attr processid 159863
attr repetition 27
attr replication #27
attr resultdir results
attr runnumber 27
attr seedset 27
config extends General
config **.numPatients 50
config network test2.LoRaNetworkTest
config sim-time-limit 1h
config warmup-period 60s
config simtime-resolution -11
config repeat 30
config rng-class cMersenneTwister
config record-eventlog false
config **.numPatients 20
config **.HospitalServer.app[0].queueLength:vector.vector-recording true
config **.HospitalServer.app[0].urgentWaitTime:vector.vector-recording true
config **.HospitalServer.app[0].normalWaitTime:vector.vector-recording true
config **.HospitalServer.app[0].urgentEndToEndDelay:vector.vector-recording true
config **.HospitalServer.app[0].normalEndToEndDelay:vector.vector-recording true
config **.loRaNodes[*].app[0].emergencyVariate:vector.vector-recording true
config **.vector-recording false
config **.loRaNodes[0].**.initialX "300m + uniform(-10m, 10m)"
config **.loRaNodes[0].**.initialY "250m + uniform(-8m, 8m)"
config **.loRaNodes[1].**.initialX "450m + uniform(-10m, 10m)"
config **.loRaNodes[1].**.initialY "250m + uniform(-8m, 8m)"
config **.loRaNodes[2].**.initialX "600m + uniform(-10m, 10m)"
config **.loRaNodes[2].**.initialY "250m + uniform(-8m, 8m)"
config **.loRaNodes[3].**.initialX "750m + uniform(-10m, 10m)"
config **.loRaNodes[3].**.initialY "250m + uniform(-8m, 8m)"
config **.loRaNodes[4].**.initialX "900m + uniform(-10m, 10m)"
config **.loRaNodes[4].**.initialY "250m + uniform(-8m, 8m)"
config **.loRaNodes[5].**.initialX "1050m + uniform(-10m, 10m)"
config **.loRaNodes[5].**.initialY "250m + uniform(-8m, 8m)"
config **.loRaNodes[6].**.initialX "1200m + uniform(-10m, 10m)"
config **.loRaNodes[6].**.initialY "250m + uniform(-8m, 8m)"
config **.loRaNodes[7].**.initialX "1350m + uniform(-10m, 10m)"
config **.loRaNodes[7].**.initialY "250m + uniform(-8m, 8m)"
config **.loRaNodes[8].**.initialX "1500m + uniform(-10m, 10m)"
config **.loRaNodes[8].**.initialY "250m + uniform(-8m, 8m)"
config **.loRaNodes[9].**.initialX "1650m + uniform(-10m, 10m)"
config **.loRaNodes[9].**.initialY "250m + uniform(-8m, 8m)"
config **.loRaNodes[10].**.initialX "300m + uniform(-10m, 10m)"
config **.loRaNodes[10].**.initialY "370m + uniform(-8m, 8m)"
config **.loRaNodes[11].**.initialX "450m + uniform(-10m, 10m)"
config **.loRaNodes[11].**.initialY "370m + uniform(-8m, 8m)"
config **.loRaNodes[12].**.initialX "600m + uniform(-10m, 10m)"
config **.loRaNodes[12].**.initialY "370m + uniform(-8m, 8m)"
config **.loRaNodes[13].**.initialX "750m + uniform(-10m, 10m)"
config **.loRaNodes[13].**.initialY "370m + uniform(-8m, 8m)"
config **.loRaNodes[14].**.initialX "900m + uniform(-10m, 10m)"
config **.loRaNodes[14].**.initialY "370m + uniform(-8m, 8m)"
config **.loRaNodes[15].**.initialX "1050m + uniform(-10m, 10m)"
config **.loRaNodes[15].**.initialY "370m + uniform(-8m, 8m)"
config **.loRaNodes[16].**.initialX "1200m + uniform(-10m, 10m)"
config **.loRaNodes[16].**.initialY "370m + uniform(-8m, 8m)"
config **.loRaNodes[17].**.initialX "1350m + uniform(-10m, 10m)"
config **.loRaNodes[17].**.initialY "370m + uniform(-8m, 8m)"
config **.loRaNodes[18].**.initialX "1500m + uniform(-10m, 10m)"
config **.loRaNodes[18].**.initialY "370m + uniform(-8m, 8m)"
config **.loRaNodes[19].**.initialX "1650m + uniform(-10m, 10m)"
config **.loRaNodes[19].**.initialY "370m + uniform(-8m, 8m)"
config **.loRaNodes[20].**.initialX "300m + uniform(-10m, 10m)"
config **.loRaNodes[20].**.initialY "490m + uniform(-8m, 8m)"
config **.loRaNodes[21].**.initialX "450m + uniform(-10m, 10m)"
config **.loRaNodes[21].**.initialY "490m + uniform(-8m, 8m)"
config **.loRaNodes[22].**.initialX "600m + uniform(-10m, 10m)"
config **.loRaNodes[22].**.initialY "490m + uniform(-8m, 8m)"
config **.loRaNodes[23].**.initialX "750m + uniform(-10m, 10m)"
config **.loRaNodes[23].**.initialY "490m + uniform(-8m, 8m)"
config **.loRaNodes[24].**.initialX "900m + uniform(-10m, 10m)"
config **.loRaNodes[24].**.initialY "490m + uniform(-8m, 8m)"
config **.loRaNodes[25].**.initialX "1050m + uniform(-10m, 10m)"
config **.loRaNodes[25].**.initialY "490m + uniform(-8m, 8m)"
config **.loRaNodes[26].**.initialX "1200m + uniform(-10m, 10m)"
config **.loRaNodes[26].**.initialY "490m + uniform(-8m, 8m)"
config **.loRaNodes[27].**.initialX "1350m + uniform(-10m, 10m)"
config **.loRaNodes[27].**.initialY "490m + uniform(-8m, 8m)"
config **.loRaNodes[28].**.initialX "1500m + uniform(-10m, 10m)"
config **.loRaNodes[28].**.initialY "490m + uniform(-8m, 8m)"
config **.loRaNodes[29].**.initialX "1650m + uniform(-10m, 10m)"
config **.loRaNodes[29].**.initialY "490m + uniform(-8m, 8m)"
config **.loRaNodes[30].**.initialX "300m + uniform(-10m, 10m)"
config **.loRaNodes[30].**.initialY "610m + uniform(-8m, 8m)"
config **.loRaNodes[31].**.initialX "450m + uniform(-10m, 10m)"
config **.loRaNodes[31].**.initialY "610m + uniform(-8m, 8m)"
config **.loRaNodes[32].**.initialX "600m + uniform(-10m, 10m)"
config **.loRaNodes[32].**.initialY "610m + uniform(-8m, 8m)"
config **.loRaNodes[33].**.initialX "750m + uniform(-10m, 10m)"
config **.loRaNodes[33].**.initialY "610m + uniform(-8m, 8m)"
config **.loRaNodes[34].**.initialX "900m + uniform(-10m, 10m)"
config **.loRaNodes[34].**.initialY "610m + uniform(-8m, 8m)"
config **.loRaNodes[35].**.initialX "1050m + uniform(-10m, 10m)"
config **.loRaNodes[35].**.initialY "610m + uniform(-8m, 8m)"
config **.loRaNodes[36].**.initialX "1200m + uniform(-10m, 10m)"
config **.loRaNodes[36].**.initialY "610m + uniform(-8m, 8m)"
config **.loRaNodes[37].**.initialX "1350m + uniform(-10m, 10m)"
config **.loRaNodes[37].**.initialY "610m + uniform(-8m, 8m)"
config **.loRaNodes[38].**.initialX "1500m + uniform(-10m, 10m)"
config **.loRaNodes[38].**.initialY "610m + uniform(-8m, 8m)"
config **.loRaNodes[39].**.initialX "1650m + uniform(-10m, 10m)"
config **.loRaNodes[39].**.initialY "610m + uniform(-8m, 8m)"
config **.loRaNodes[40].**.initialX "300m + uniform(-10m, 10m)"
config **.loRaNodes[40].**.initialY "730m + uniform(-8m, 8m)"
config **.loRaNodes[41].**.initialX "450m + uniform(-10m, 10m)"
config **.loRaNodes[41].**.initialY "730m + uniform(-8m, 8m)"
config **.loRaNodes[42].**.initialX "600m + uniform(-10m, 10m)"
config **.loRaNodes[42].**.initialY "730m + uniform(-8m, 8m)"
config **.loRaNodes[43].**.initialX "750m + uniform(-10m, 10m)"
config **.loRaNodes[43].**.initialY "730m + uniform(-8m, 8m)"
config **.loRaNodes[44].**.initialX "900m + uniform(-10m, 10m)"
config **.loRaNodes[44].**.initialY "730m + uniform(-8m, 8m)"
config **.loRaNodes[45].**.initialX "1050m + uniform(-10m, 10m)"
config **.loRaNodes[45].**.initialY "730m + uniform(-8m, 8m)"
config **.loRaNodes[46].**.initialX "1200m + uniform(-10m, 10m)"
config **.loRaNodes[46].**.initialY "730m + uniform(-8m, 8m)"
config **.loRaNodes[47].**.initialX "1350m + uniform(-10m, 10m)"
config **.loRaNodes[47].**.initialY "730m + uniform(-8m, 8m)"
config **.loRaNodes[48].**.initialX "1500m + uniform(-10m, 10m)"
config **.loRaNodes[48].**.initialY "730m + uniform(-8m, 8m)"
config **.loRaNodes[49].**.initialX "1650m + uniform(-10m, 10m)"
config **.loRaNodes[49].**.initialY "730m + uniform(-8m, 8m)"
config **.loRaNodes[50].**.initialX "300m + uniform(-10m, 10m)"
config **.loRaNodes[50].**.initialY "850m + uniform(-8m, 8m)"
config **.loRaNodes[51].**.initialX "450m + uniform(-10m, 10m)"
config **.loRaNodes[51].**.initialY "850m + uniform(-8m, 8m)"
config **.loRaNodes[52].**.initialX "600m + uniform(-10m, 10m)"
config **.loRaNodes[52].**.initialY "850m + uniform(-8m, 8m)"
config **.loRaNodes[53].**.initialX "750m + uniform(-10m, 10m)"
config **.loRaNodes[53].**.initialY "850m + uniform(-8m, 8m)"
config **.loRaNodes[54].**.initialX "900m + uniform(-10m, 10m)"
config **.loRaNodes[54].**.initialY "850m + uniform(-8m, 8m)"
config **.loRaNodes[55].**.initialX "1050m + uniform(-10m, 10m)"
config **.loRaNodes[55].**.initialY "850m + uniform(-8m, 8m)"
config **.loRaNodes[56].**.initialX "1200m + uniform(-10m, 10m)"
config **.loRaNodes[56].**.initialY "850m + uniform(-8m, 8m)"
config **.loRaNodes[57].**.initialX "1350m + uniform(-10m, 10m)"
config **.loRaNodes[57].**.initialY "850m + uniform(-8m, 8m)"
config **.loRaNodes[58].**.initialX "1500m + uniform(-10m, 10m)"
config **.loRaNodes[58].**.initialY "850m + uniform(-8m, 8m)"
config **.loRaNodes[59].**.initialX "1650m + uniform(-10m, 10m)"
config **.loRaNodes[59].**.initialY "850m + uniform(-8m, 8m)"
config **.loRaNodes[60].**.initialX "300m + uniform(-10m, 10m)"
config **.loRaNodes[60].**.initialY "970m + uniform(-8m, 8m)"
config **.loRaNodes[61].**.initialX "450m + uniform(-10m, 10m)"
config **.loRaNodes[61].**.initialY "970m + uniform(-8m, 8m)"
config **.loRaNodes[62].**.initialX "600m + uniform(-10m, 10m)"
config **.loRaNodes[62].**.initialY "970m + uniform(-8m, 8m)"
config **.loRaNodes[63].**.initialX "750m + uniform(-10m, 10m)"
config **.loRaNodes[63].**.initialY "970m + uniform(-8m, 8m)"
config **.loRaNodes[64].**.initialX "900m + uniform(-10m, 10m)"
config **.loRaNodes[64].**.initialY "970m + uniform(-8m, 8m)"
config **.loRaNodes[65].**.initialX "1050m + uniform(-10m, 10m)"
config **.loRaNodes[65].**.initialY "970m + uniform(-8m, 8m)"
config **.loRaNodes[66].**.initialX "1200m + uniform(-10m, 10m)"
config **.loRaNodes[66].**.initialY "970m + uniform(-8m, 8m)"
config **.loRaNodes[67].**.initialX "1350m + uniform(-10m, 10m)"
config **.loRaNodes[67].**.initialY "970m + uniform(-8m, 8m)"
config **.loRaNodes[68].**.initialX "1500m + uniform(-10m, 10m)"
config **.loRaNodes[68].**.initialY "970m + uniform(-8m, 8m)"
config **.loRaNodes[69].**.initialX "1650m + uniform(-10m, 10m)"
config **.loRaNodes[69].**.initialY "970m + uniform(-8m, 8m)"
config **.loRaNodes[70].**.initialX "300m + uniform(-10m, 10m)"
config **.loRaNodes[70].**.initialY "1090m + uniform(-8m, 8m)"
config **.loRaNodes[71].**.initialX "450m + uniform(-10m, 10m)"
config **.loRaNodes[71].**.initialY "1090m + uniform(-8m, 8m)"
config **.loRaNodes[72].**.initialX "600m + uniform(-10m, 10m)"
config **.loRaNodes[72].**.initialY "1090m + uniform(-8m, 8m)"
config **.loRaNodes[73].**.initialX "750m + uniform(-10m, 10m)"
config **.loRaNodes[73].**.initialY "1090m + uniform(-8m, 8m)"
config **.loRaNodes[74].**.initialX "900m + uniform(-10m, 10m)"
config **.loRaNodes[74].**.initialY "1090m + uniform(-8m, 8m)"
config **.HospitalServer.numApps 1
config **.HospitalServer.app[0].typename HospitalServerApp
config **.HospitalServer.app[0].destPort 2000
config **.HospitalServer.app[0].localPort 1000
config **.HospitalServer.app[0].adrMethod "\"avg\""
config **.HospitalServer.**.evaluateADRinServer true
config **.HospitalServer.app[0].queueSize 50
config **.HospitalServer.app[0].expo_rate_lambda 0.83
config **.loRaGateway.numUdpApps 1
config **.loRaGateway.packetForwarder.localPort 2000
config **.loRaGateway.packetForwarder.destPort 1000
config **.loRaGateway.packetForwarder.destAddresses "\"HospitalServer\""
config **.loRaGateway.**.initFromDisplayString false
config **.loRaGateway.**.initialX 544.00m
config **.loRaGateway.**.initialY 544.00m
config **.loRaNodes[*].numApps 1
config **.loRaNodes[*].app[0].typename PatientSensorApp
config **.loRaNodes[*].app[0].expo_rate_lambda 0.00175
config **.loRaNodes[*].app[0].emergencyThreshold 50
config **.loRaNodes[*].**.timeToFirstPacket exponential(24s)
config **.loRaNodes[*].**.timeToNextPacket exponential(24s)
config **.loRaNodes[*].**.numberOfPacketsToSend 0
config **.loRaNodes[*].**initialLoRaSF 12
config **.loRaNodes[*].**initialLoRaTP 14dBm
config **.loRaNodes[*].**initialLoRaBW "125 kHz"
config **.loRaNodes[*].**initialLoRaCR 4
config **.loRaNodes[*].**.initFromDisplayString false
config **.loRaNodes[*].**.evaluateADRinNode true
config **.loRaNodes[*].LoRaNic.radio.energyConsumer.typename LoRaEnergyConsumer
config **.loRaNodes[*].**.energySourceModule "\"^.IdealEpEnergyStorage\""
config **.loRaNodes[*].LoRaNic.radio.energyConsumer.configFile "xmldoc(\"energyConsumptionParam.xml\")"
config **.maxTransmissionDuration 4s
config **.energyDetection -110dBm
config **.radio.radioMediumModule "\"LoRaMedium\""
config **.minInterferenceTime 0s
config **.constraintAreaMinX 0m
config **.constraintAreaMinY 0m
config **.constraintAreaMinZ 0m
config **.constraintAreaMaxZ 0m
config **.constraintAreaMaxX 3000.0m
config **.constraintAreaMaxY 3000.0m

vector 0 LoRaNetworkTest.loRaNodes[0].app[0] emergencyVariate:vector ETV
attr recordingmode vector
attr title "Exponential variate samples"
vector 1 LoRaNetworkTest.loRaNodes[44].app[0] emergencyVariate:vector ETV
attr recordingmode vector
attr title "Exponential variate samples"
vector 2 LoRaNetworkTest.loRaNodes[40].app[0] emergencyVariate:vector ETV
attr recordingmode vector
attr title "Exponential variate samples"
vector 3 LoRaNetworkTest.HospitalServer.app[0] queueLength:vector ETV
attr recordingmode vector
attr title "Total queue length"
vector 4 LoRaNetworkTest.HospitalServer.app[0] normalWaitTime:vector ETV
attr recordingmode vector
attr title "Normal wait time (s)"
vector 5 LoRaNetworkTest.HospitalServer.app[0] normalEndToEndDelay:vector ETV
attr recordingmode vector
attr title "Normal end-to-end delay (s)"
vector 6 LoRaNetworkTest.loRaNodes[28].app[0] emergencyVariate:vector ETV
attr recordingmode vector
attr title "Exponential variate samples"
vector 7 LoRaNetworkTest.loRaNodes[24].app[0] emergencyVariate:vector ETV
attr recordingmode vector
attr title "Exponential variate samples"
vector 8 LoRaNetworkTest.HospitalServer.app[0] urgentWaitTime:vector ETV
attr recordingmode vector
attr title "Urgent wait time (s)"
vector 9 LoRaNetworkTest.HospitalServer.app[0] urgentEndToEndDelay:vector ETV
attr recordingmode vector
attr title "Urgent end-to-end delay (s)"
vector 10 LoRaNetworkTest.loRaNodes[10].app[0] emergencyVariate:vector ETV
attr recordingmode vector
attr title "Exponential variate samples"
vector 11 LoRaNetworkTest.loRaNodes[29].app[0] emergencyVariate:vector ETV
attr recordingmode vector
attr title "Exponential variate samples"
vector 12 LoRaNetworkTest.loRaNodes[23].app[0] emergencyVariate:vector ETV
attr recordingmode vector
attr title "Exponential variate samples"
vector 13 LoRaNetworkTest.loRaNodes[22].app[0] emergencyVariate:vector ETV
attr recordingmode vector
attr title "Exponential variate samples"
vector 14 LoRaNetworkTest.loRaNodes[19].app[0] emergencyVariate:vector ETV
attr recordingmode vector
attr title "Exponential variate samples"
vector 15 LoRaNetworkTest.loRaNodes[13].app[0] emergencyVariate:vector ETV
attr recordingmode vector
attr title "Exponential variate samples"
vector 16 LoRaNetworkTest.loRaNodes[8].app[0] emergencyVariate:vector ETV
attr recordingmode vector
attr title "Exponential variate samples"
vector 17 LoRaNetworkTest.loRaNodes[17].app[0] emergencyVariate:vector ETV
attr recordingmode vector
attr title "Exponential variate samples"
vector 18 LoRaNetworkTest.loRaNodes[4].app[0] emergencyVariate:vector ETV
attr recordingmode vector
attr title "Exponential variate samples"
vector 19 LoRaNetworkTest.loRaNodes[42].app[0] emergencyVariate:vector ETV
attr recordingmode vector
attr title "Exponential variate samples"
vector 20 LoRaNetworkTest.loRaNodes[7].app[0] emergencyVariate:vector ETV
attr recordingmode vector
attr title "Exponential variate samples"
vector 21 LoRaNetworkTest.loRaNodes[18].app[0] emergencyVariate:vector ETV
attr recordingmode vector
attr title "Exponential variate samples"
vector 22 LoRaNetworkTest.loRaNodes[5].app[0] emergencyVariate:vector ETV
attr recordingmode vector
attr title "Exponential variate samples"
vector 23 LoRaNetworkTest.loRaNodes[20].app[0] emergencyVariate:vector ETV
attr recordingmode vector
attr title "Exponential variate samples"
vector 24 LoRaNetworkTest.loRaNodes[16].app[0] emergencyVariate:vector ETV
attr recordingmode vector
attr title "Exponential variate samples"
vector 25 LoRaNetworkTest.loRaNodes[9].app[0] emergencyVariate:vector ETV
attr recordingmode vector
attr title "Exponential variate samples"
vector 26 LoRaNetworkTest.loRaNodes[49].app[0] emergencyVariate:vector ETV
attr recordingmode vector
attr title "Exponential variate samples"
vector 27 LoRaNetworkTest.loRaNodes[36].app[0] emergencyVariate:vector ETV
attr recordingmode vector
attr title "Exponential variate samples"
vector 28 LoRaNetworkTest.loRaNodes[12].app[0] emergencyVariate:vector ETV
attr recordingmode vector
attr title "Exponential variate samples"
vector 29 LoRaNetworkTest.loRaNodes[41].app[0] emergencyVariate:vector ETV
attr recordingmode vector
attr title "Exponential variate samples"
vector 30 LoRaNetworkTest.loRaNodes[47].app[0] emergencyVariate:vector ETV
attr recordingmode vector
attr title "Exponential variate samples"
vector 31 LoRaNetworkTest.loRaNodes[27].app[0] emergencyVariate:vector ETV
attr recordingmode vector
attr title "Exponential variate samples"
vector 32 LoRaNetworkTest.loRaNodes[39].app[0] emergencyVariate:vector ETV
attr recordingmode vector
attr title "Exponential variate samples"
vector 33 LoRaNetworkTest.loRaNodes[26].app[0] emergencyVariate:vector ETV
attr recordingmode vector
attr title "Exponential variate samples"
vector 34 LoRaNetworkTest.loRaNodes[15].app[0] emergencyVariate:vector ETV
attr recordingmode vector
attr title "Exponential variate samples"
vector 35 LoRaNetworkTest.loRaNodes[11].app[0] emergencyVariate:vector ETV
attr recordingmode vector
attr title "Exponential variate samples"
vector 36 LoRaNetworkTest.loRaNodes[37].app[0] emergencyVariate:vector ETV
attr recordingmode vector
attr title "Exponential variate samples"
vector 37 LoRaNetworkTest.loRaNodes[3].app[0] emergencyVariate:vector ETV
attr recordingmode vector
attr title "Exponential variate samples"
vector 38 LoRaNetworkTest.loRaNodes[34].app[0] emergencyVariate:vector ETV
attr recordingmode vector
attr title "Exponential variate samples"
vector 39 LoRaNetworkTest.loRaNodes[14].app[0] emergencyVariate:vector ETV
attr recordingmode vector
attr title "Exponential variate samples"
vector 40 LoRaNetworkTest.loRaNodes[1].app[0] emergencyVariate:vector ETV
attr recordingmode vector
attr title "Exponential variate samples"
vector 41 LoRaNetworkTest.loRaNodes[2].app[0] emergencyVariate:vector ETV
attr recordingmode vector
attr title "Exponential variate samples"
vector 42 LoRaNetworkTest.loRaNodes[21].app[0] emergencyVariate:vector ETV
attr recordingmode vector
attr title "Exponential variate samples"
vector 43 LoRaNetworkTest.loRaNodes[48].app[0] emergencyVariate:vector ETV
attr recordingmode vector
attr title "Exponential variate samples"
vector 44 LoRaNetworkTest.loRaNodes[35].app[0] emergencyVariate:vector ETV
attr recordingmode vector
attr title "Exponential variate samples"
vector 45 LoRaNetworkTest.loRaNodes[30].app[0] emergencyVariate:vector ETV
attr recordingmode vector
attr title "Exponential variate samples"
vector 46 LoRaNetworkTest.loRaNodes[33].app[0] emergencyVariate:vector ETV
attr recordingmode vector
attr title "Exponential variate samples"
vector 47 LoRaNetworkTest.loRaNodes[31].app[0] emergencyVariate:vector ETV
attr recordingmode vector
attr title "Exponential variate samples"
vector 48 LoRaNetworkTest.loRaNodes[32].app[0] emergencyVariate:vector ETV
attr recordingmode vector
attr title "Exponential variate samples"
vector 49 LoRaNetworkTest.loRaNodes[43].app[0] emergencyVariate:vector ETV
attr recordingmode vector
attr title "Exponential variate samples"
vector 50 LoRaNetworkTest.loRaNodes[45].app[0] emergencyVariate:vector ETV
attr recordingmode vector
attr title "Exponential variate samples"
vector 51 LoRaNetworkTest.loRaNodes[46].app[0] emergencyVariate:vector ETV
attr recordingmode vector
attr title "Exponential variate samples"
vector 52 LoRaNetworkTest.loRaNodes[38].app[0] emergencyVariate:vector ETV
attr recordingmode vector
attr title "Exponential variate samples"
vector 53 LoRaNetworkTest.loRaNodes[6].app[0] emergencyVariate:vector ETV
attr recordingmode vector
attr title "Exponential variate samples"
vector 54 LoRaNetworkTest.loRaNodes[25].app[0] emergencyVariate:vector ETV
attr recordingmode vector
attr title "Exponential variate samples"
0	4971	64.23199902116	237.3823083219
0	10639	259.45156570842	312.08696548923
0	16070	442.53341396369	409.11076212663
0	21658	639.95553578943	114.2716691255
0	27750	827.61385444995	218.32416514237
0	33927	1039.88597131544	1749.1669756442
0	39518	1218.73651518727	19.874190614937
0	44518	1396.63856552208	439.20634676263
0	49849	1581.73390870917	35.203237278879
0	54934	1756.81179650677	1019.2264067931
0	60878	1942.36444917143	1111.2123735747
0	67652	2158.02844179771	570.66696958027
0	74833	2390.04698352101	296.37231016037
0	81132	2614.17033760691	39.496079785465
0	87139	2818.78787474161	1102.3990900796
0	93941	3038.35410248896	1158.5239966754
0	99846	3237.53112569513	1085.6697130626
0	105575	3409.52015636269	387.88039671485
0	110823	3594.29267761821	461.95992344684
1	5076	67.21988735872	105.53775604626
1	10515	257.70306673224	801.15545804208
1	16660	461.71825854947	235.59638326238
1	21948	642.72296395661	78.672575210497
1	27059	822.39175531743	133.9216220433
1	32319	998.63679241583	431.24738841881
1	38113	1187.31596222368	580.16684779666
1	43015	1361.95433544058	316.55622260153
1	48779	1562.23166852288	663.76253431645
1	54400	1742.82956045016	419.76740235476
1	60296	1925.47090740067	1947.3472675161
1	66444	2115.71640907499	528.96749257188
1	71859	2306.86317405072	1288.785386303
1	78344	2519.22356664567	450.21668989388
1	83970	2701.14289635231	391.22407632597
1	89700	2895.50220349902	477.79153727654
1	95741	3092.90741874163	578.24605312819
1	102313	3296.93715230698	147.25810342435
1	107896	3489.82792769998	164.34830357898
2	5130	68.64694196345	71.328946629394
2	9902	242.61944016141	286.06265436778
2	15730	438.29390891733	1774.2622523129
2	20703	611.60372601248	417.29907650885
2	25810	790.97253766709	44.761639433383
2	30939	975.79226453645	3.8999976091639
2	36355	1147.33506650562	100.98984740471
2	43860	1387.64778142903	41.676778931708
2	48833	1563.02744571968	190.35351275432
2	55435	1762.80525798258	57.520499349729
2	61981	1978.5431707791	471.15651117116
2	67420	2154.75537258574	491.52833102446
2	74368	2382.17595917166	520.23281284381
2	80513	2591.65027129994	571.32477405073
2	86602	2784.14848282835	310.33946705436
2	92719	2998.02208029047	138.15598431965
2	98550	3191.38255322952	1092.3768735068
2	104176	3368.19890620029	29.260251720141
2	109685	3552.02322451531	302.215414488
3	5252	68.93201812143	1
3	5252	68.93201812143	0
3	5551	87.12361490568	1
3	5551	87.12361490568	0
3	5659	96.45948765417	1
3	5659	96.45948765417	0
3	6057	180.56590583999	1
3	6057	180.56590583999	0
3	6342	188.68023114655	1
3	6342	188.68023114655	0
3	6782	192.77032356011	1
3	6782	192.77032356011	0
3	7102	196.31228697625	1
3	7102	196.31228697625	0
3	7269	200.28379625938	1
3	7269	200.28379625938	0
3	7992	206.34506137161	1
3	7992	206.34506137161	0
3	8568	211.12657656032	1
3	8568	211.12657656032	0
3	8889	220.58632954157	1
3	8889	220.58632954157	0
3	9332	226.40593527622	1
3	9332	226.40593527622	0
3	9647	232.70562864843	1
3	9647	232.70562864843	0
3	9810	237.32855827778	1
3	9810	237.32855827778	0
3	10155	245.10936911496	1
3	10155	245.10936911496	0
3	10345	248.16785622379	1
3	10345	248.16785622379	0
3	10491	250.77118314496	1
3	10491	250.77118314496	0
3	10636	259.41519749495	1
3	10636	259.41519749495	0
3	10961	268.04387627673	1
3	10961	268.04387627673	0
3	11472	314.94339189675	1
3	11472	314.94339189675	0
3	11861	371.12759547367	1
3	11861	371.12759547367	0
3	12300	376.06898382897	1
3	12300	376.06898382897	0
3	12820	384.22584921825	1
3	12820	384.22584921825	0
3	13191	389.04182084544	1
3	13191	389.04182084544	0
3	13469	393.85007461812	1
3	13469	393.85007461812	0
3	13760	397.33146042711	1
3	13760	397.33146042711	0
3	13917	399.47214345996	1
3	13917	399.47214345996	0
3	14055	403.52084310403	1
3	14055	403.52084310403	0
3	14219	408.14086933201	1
3	14219	408.14086933201	0
3	14587	413.8374393022	1
3	14587	413.8374393022	0
3	15321	425.46966165024	1
3	15321	425.46966165024	0
3	15496	432.32507438969	1
3	15496	432.32507438969	0
3	15881	439.25609313924	1
3	15881	439.25609313924	0
3	16038	441.52805036028	1
3	16038	441.52805036028	0
3	16179	444.24554463807	1
3	16204	445.06492446599	0
3	16314	452.41924984387	1
3	16314	452.41924984387	0
3	16440	455.66405281249	1
3	16440	455.66405281249	0
3	16584	457.79859689921	1
3	16598	458.35959775482	0
3	16783	463.00793248586	1
3	16783	463.00793248586	0
3	16957	465.41977238711	1
3	16957	465.41977238711	0
3	17627	548.60538002	1
3	17627	548.60538002	0
3	17823	557.69807109493	1
3	17823	557.69807109493	0
3	18153	563.88606305619	1
3	18153	563.88606305619	0
3	18438	569.63923330067	1
3	18438	569.63923330067	0
3	18638	574.98412365877	1
3	18638	574.98412365877	0
3	19472	588.76620671322	1
3	19472	588.76620671322	0
3	19789	590.79751572033	1
3	19789	590.79751572033	0
3	20042	593.76631939465	1
3	20042	593.76631939465	0
3	20459	601.93118919994	1
3	20459	601.93118919994	0
3	21125	625.47335517528	1
3	21125	625.47335517528	0
3	21274	629.80198802383	1
3	21274	629.80198802383	0
3	21389	633.71454649561	1
3	21389	633.71454649561	0
3	21545	636.77392297432	1
3	21547	636.94234635802	0
3	21941	642.17278315319	1
3	21941	642.17278315319	0
3	22221	648.07028097195	1
3	22221	648.07028097195	0
3	22467	669.48347965238	1
3	22467	669.48347965238	0
3	22757	705.9167068335	1
3	22757	705.9167068335	0
3	23079	722.7748705037	1
3	23079	722.7748705037	0
3	23563	746.22467901364	1
3	23563	746.22467901364	0
3	23884	752.12943128387	1
3	23884	752.12943128387	0
3	24042	754.82529504144	1
3	24042	754.82529504144	0
3	24473	765.06516756468	1
3	24473	765.06516756468	0
3	24684	767.6550735481	1
3	24686	767.90320047812	0
3	24968	770.23764853219	1
3	24968	770.23764853219	0
3	25422	778.43100637801	1
3	25422	778.43100637801	0
3	25775	784.02795071087	1
3	25775	784.02795071087	0
3	26017	794.30105404952	1
3	26017	794.30105404952	0
3	26365	801.5502013931	1
3	26365	801.5502013931	0
3	26520	808.56247356716	1
3	26520	808.56247356716	0
3	26802	814.84464405653	1
3	26802	814.84464405653	0
3	26975	820.9085647567	1
3	26975	820.9085647567	0
3	27634	826.15007815882	1
3	27634	826.15007815882	0
3	27966	829.32598512433	1
3	27966	829.32598512433	0
3	28296	845.41171873058	1
3	28296	845.41171873058	0
3	28407	857.63617989307	1
3	28407	857.63617989307	0
3	28809	899.34084982581	1
3	28809	899.34084982581	0
3	29102	917.45033988374	1
3	29102	917.45033988374	0
3	29502	929.63627131295	1
3	29502	929.63627131295	0
3	29873	934.92901351051	1
3	29873	934.92901351051	0
3	30528	956.03946933071	1
3	30528	956.03946933071	0
3	30773	966.435080278	1
3	30773	966.435080278	0
3	31038	975.85214687894	1
3	31038	975.85214687894	0
3	31110	977.50439496506	1
3	31110	977.50439496506	0
3	31304	979.96326255303	1
3	31304	979.96326255303	0
3	31500	982.26399562165	1
3	31500	982.26399562165	0
3	31627	985.39060986994	1
3	31627	985.39060986994	0
3	31755	989.8191733914	1
3	31755	989.8191733914	0
3	32041	993.79694612805	1
3	32041	993.79694612805	0
3	32239	995.9913930052	1
3	32239	995.9913930052	0
3	32552	1000.34892317854	1
3	32552	1000.34892317854	0
3	32739	1003.70917508932	1
3	32739	1003.70917508932	0
3	33312	1024.04284276973	1
3	33312	1024.04284276973	0
3	33549	1027.83204072787	1
3	33549	1027.83204072787	0
3	33674	1033.15126674023	1
3	33674	1033.15126674023	0
3	33925	1039.8628000231	1
3	33925	1039.8628000231	0
3	34249	1053.48373711855	1
3	34249	1053.48373711855	0
3	34817	1089.98433578843	1
3	34817	1089.98433578843	0
3	34981	1094.75339248737	1
3	34981	1094.75339248737	0
3	35218	1102.39676714302	1
3	35218	1102.39676714302	0
3	35460	1109.17374488773	1
3	35460	1109.17374488773	0
3	36085	1130.961230002	1
3	36085	1130.961230002	0
3	36285	1141.2077930322	1
3	36285	1141.2077930322	0
3	36454	1148.05617764877	1
3	36454	1148.05617764877	0
3	36747	1152.28545238014	1
3	36747	1152.28545238014	0
3	36903	1155.36392625416	1
3	36903	1155.36392625416	0
3	37026	1163.64466969912	1
3	37026	1163.64466969912	0
3	37382	1173.6837898611	1
3	37382	1173.6837898611	0
3	37662	1176.85932124377	1
3	37662	1176.85932124377	0
3	37851	1178.56258542022	1
3	37991	1182.35118356361	2
3	38002	1185.00242419012	1
3	38059	1186.77361169794	0
3	38235	1187.46104871189	1
3	38237	1188.04724096527	0
3	38668	1198.21743206298	1
3	38668	1198.21743206298	0
3	39236	1210.64677453355	1
3	39236	1210.64677453355	0
3	39944	1227.01833960072	1
3	39944	1227.01833960072	0
3	40321	1255.29316246229	1
3	40321	1255.29316246229	0
3	40640	1266.2165175662	1
3	40640	1266.2165175662	0
3	40773	1269.66095847967	1
3	40773	1269.66095847967	0
3	41134	1303.11998568746	1
3	41134	1303.11998568746	0
3	41383	1312.46578397898	1
3	41383	1312.46578397898	0
3	41497	1323.06027521602	1
3	41497	1323.06027521602	0
3	41681	1334.45258627651	1
3	41681	1334.45258627651	0
3	41793	1337.12978326858	1
3	41793	1337.12978326858	0
3	42135	1343.03612919414	1
3	42135	1343.03612919414	0
3	42345	1345.92217207968	1
3	42345	1345.92217207968	0
3	42750	1357.05164972824	1
3	42750	1357.05164972824	0
3	42859	1360.04221260045	1
3	42859	1360.04221260045	0
3	43013	1361.88971038392	1
3	43013	1361.88971038392	0
3	43195	1363.66646620329	1
3	43195	1363.66646620329	0
3	44615	1397.10067735661	1
3	44615	1397.10067735661	0
3	44830	1404.12398489723	1
3	44830	1404.12398489723	0
3	45199	1415.287957922	1
3	45199	1415.287957922	0
3	45421	1419.32473018881	1
3	45421	1419.32473018881	0
3	45545	1426.51035243901	1
3	45545	1426.51035243901	0
3	45775	1443.21155648619	1
3	45775	1443.21155648619	0
3	45900	1452.57568008565	1
3	45900	1452.57568008565	0
3	46413	1480.22142752839	1
3	46413	1480.22142752839	0
3	47178	1505.84614986403	1
3	47178	1505.84614986403	0
3	47315	1517.57835250981	1
3	47315	1517.57835250981	0
3	47458	1519.43095605769	1
3	47458	1519.43095605769	0
3	47676	1528.18652630982	1
3	47676	1528.18652630982	0
3	47907	1530.29615415688	1
3	47907	1530.29615415688	0
3	48051	1538.78169753435	1
3	48051	1538.78169753435	0
3	48179	1541.61330251594	1
3	48179	1541.61330251594	0
3	48421	1544.16536796851	1
3	48421	1544.16536796851	0
3	48982	1564.73957614829	1
3	48982	1564.73957614829	0
3	49140	1567.04556243601	1
3	49140	1567.04556243601	0
3	49479	1574.95743605735	1
3	49479	1574.95743605735	0
3	49665	1577.01649077611	1
3	49732	1578.03682198916	0
3	49954	1583.44603938355	1
3	49954	1583.44603938355	0
3	50676	1608.38040476673	1
3	50676	1608.38040476673	0
3	50895	1629.22521695601	1
3	50895	1629.22521695601	0
3	51038	1632.17455890084	1
3	51055	1633.72888323036	0
3	51235	1642.56508012357	1
3	51235	1642.56508012357	0
3	51401	1651.94885911185	1
3	51401	1651.94885911185	0
3	51688	1656.92069352592	1
3	51688	1656.92069352592	0
3	51904	1668.18225231203	1
3	51904	1668.18225231203	0
3	52236	1679.1595299545	1
3	52236	1679.1595299545	0
3	52473	1691.79702315979	1
3	52473	1691.79702315979	0
3	52599	1697.32340681467	1
3	52599	1697.32340681467	0
3	52787	1700.12528758879	1
3	52787	1700.12528758879	0
3	52969	1703.83453796833	1
3	52969	1703.83453796833	0
3	53158	1708.32089317969	1
3	53158	1708.32089317969	0
3	53363	1711.21784107948	1
3	53363	1711.21784107948	0
3	53477	1714.60534386161	1
3	53477	1714.60534386161	0
3	53740	1725.57124917158	1
3	53740	1725.57124917158	0
3	54005	1729.79626360892	1
3	54005	1729.79626360892	0
3	54676	1749.80529468519	1
3	54676	1749.80529468519	0
3	54815	1751.7919537355	1
3	54815	1751.7919537355	0
3	55037	1758.52392718115	1
3	55037	1758.52392718115	0
3	55719	1767.17837443699	1
3	55719	1767.17837443699	0
3	55845	1770.61025385807	1
3	55845	1770.61025385807	0
3	56377	1785.40805597376	1
3	56377	1785.40805597376	0
3	56705	1799.02602801926	1
3	56705	1799.02602801926	0
3	56879	1800.75214259806	1
3	56879	1800.75214259806	0
3	57037	1807.835537024	1
3	57037	1807.835537024	0
3	57178	1817.64366086392	1
3	57178	1817.64366086392	0
3	57393	1842.25776329759	1
3	57393	1842.25776329759	0
3	57526	1845.77330361595	1
3	57526	1845.77330361595	0
3	57871	1855.15706258346	1
3	57871	1855.15706258346	0
3	58050	1857.11871312313	1
3	58050	1857.11871312313	0
3	58272	1876.0134241522	1
3	58272	1876.0134241522	0
3	58518	1884.15253053851	1
3	58518	1884.15253053851	0
3	58642	1886.53707179394	1
3	58642	1886.53707179394	0
3	58777	1888.8469944341	1
3	58777	1888.8469944341	0
3	59232	1902.03599313688	1
3	59232	1902.03599313688	0
3	59572	1905.05253360257	1
3	59572	1905.05253360257	0
3	60287	1921.60499065682	1
3	60287	1921.60499065682	0
3	60513	1927.74355084322	1
3	60513	1927.74355084322	0
3	60876	1941.99355901421	1
3	60876	1941.99355901421	0
3	60983	1944.07657984581	1
3	61060	1944.81757335785	0
3	61168	1945.90466317	1
3	61247	1946.45091453129	0
3	61480	1954.17620509853	1
3	61480	1954.17620509853	0
3	61730	1962.68655102453	1
3	61730	1962.68655102453	0
3	61960	1972.81174769036	1
3	61960	1972.81174769036	0
3	62131	1980.25530371171	1
3	62131	1980.25530371171	0
3	62586	1992.05772550741	1
3	62586	1992.05772550741	0
3	62824	1998.67850941603	1
3	62824	1998.67850941603	0
3	62941	2016.53371747318	1
3	62941	2016.53371747318	0
3	63185	2023.51341981897	1
3	63185	2023.51341981897	0
3	63299	2025.67673135274	1
3	63299	2025.67673135274	0
3	63672	2034.78468100574	1
3	63672	2034.78468100574	0
3	63786	2044.96219078274	1
3	63786	2044.96219078274	0
3	64026	2050.34897476676	1
3	64026	2050.34897476676	0
3	64158	2055.69554988043	1
3	64158	2055.69554988043	0
3	64351	2060.06663383423	1
3	64351	2060.06663383423	0
3	64534	2064.45305725051	1
3	64534	2064.45305725051	0
3	64877	2083.31494132408	1
3	64877	2083.31494132408	0
3	65347	2093.68599150594	1
3	65347	2093.68599150594	0
3	65601	2098.15159401068	1
3	65601	2098.15159401068	0
3	66028	2103.99155503679	1
3	66028	2103.99155503679	0
3	66193	2107.01550906332	1
3	66218	2107.35307322506	0
3	67118	2139.8016595486	1
3	67118	2139.8016595486	0
3	67277	2145.77075792854	1
3	67277	2145.77075792854	0
3	67620	2156.46750301435	1
3	67620	2156.46750301435	0
3	67809	2159.74057247209	1
3	67809	2159.74057247209	0
3	68506	2196.19334972261	1
3	68506	2196.19334972261	0
3	68781	2203.72861910992	1
3	68781	2203.72861910992	0
3	69217	2215.72419922893	1
3	69217	2215.72419922893	0
3	69348	2220.50234028443	1
3	69348	2220.50234028443	0
3	69833	2231.51562510877	1
3	69833	2231.51562510877	0
3	69944	2240.36279873451	1
3	69944	2240.36279873451	0
3	70237	2266.53206048696	1
3	70237	2266.53206048696	0
3	70416	2268.78866224037	1
3	70416	2268.78866224037	0
3	70824	2284.32196678991	1
3	70824	2284.32196678991	0
3	71059	2286.71882718677	1
3	71083	2286.76907102272	0
3	71362	2291.91786423739	1
3	71362	2291.91786423739	0
3	71623	2294.42812007714	1
3	71623	2294.42812007714	0
3	71980	2308.57530481343	1
3	71980	2308.57530481343	0
3	72100	2314.3317380013	1
3	72100	2314.3317380013	0
3	72218	2317.32364568158	1
3	72218	2317.32364568158	0
3	72428	2325.06645576984	1
3	72428	2325.06645576984	0
3	72590	2330.12015750833	1
3	72590	2330.12015750833	0
3	72724	2333.47870278443	1
3	72724	2333.47870278443	0
3	73139	2340.85664465135	1
3	73139	2340.85664465135	0
3	73689	2352.50443968767	1
3	73689	2352.50443968767	0
3	73868	2368.27558675587	1
3	73868	2368.27558675587	0
3	74828	2388.23844138098	1
3	74828	2388.23844138098	0
3	74935	2391.75911419539	1
3	74935	2391.75911419539	0
3	75417	2401.85439425447	1
3	75417	2401.85439425447	0
3	75524	2415.44185281439	1
3	75524	2415.44185281439	0
3	75657	2420.57673837028	1
3	75657	2420.57673837028	0
3	75797	2425.59663287487	1
3	75797	2425.59663287487	0
3	75944	2438.91399119653	1
3	75944	2438.91399119653	0
3	76590	2470.38609794711	1
3	76590	2470.38609794711	0
3	76886	2483.75011689638	1
3	76886	2483.75011689638	0
3	77109	2485.94960846173	1
3	77109	2485.94960846173	0
3	77507	2494.45156496874	1
3	77507	2494.45156496874	0
3	77801	2506.24907103897	1
3	77801	2506.24907103897	0
3	78110	2513.76469367962	1
3	78110	2513.76469367962	0
3	78444	2519.38577227246	1
3	78444	2519.38577227246	0
3	78691	2525.6006781379	1
3	78691	2525.6006781379	0
3	79200	2540.54936108938	1
3	79200	2540.54936108938	0
3	80451	2586.97643229743	1
3	80451	2586.97643229743	0
3	80660	2593.36240172855	1
3	80660	2593.36240172855	0
3	81284	2615.88247078529	1
3	81284	2615.88247078529	0
3	81503	2628.93099966883	1
3	81503	2628.93099966883	0
3	81658	2633.64715952429	1
3	81658	2633.64715952429	0
3	82004	2651.01279533749	1
3	82004	2651.01279533749	0
3	82456	2665.34770315953	1
3	82456	2665.34770315953	0
3	82576	2673.17465900676	1
3	82576	2673.17465900676	0
3	82715	2687.80065371675	1
3	82715	2687.80065371675	0
3	83424	2696.21202564548	1
3	83424	2696.21202564548	0
3	83731	2698.77668369927	1
3	83731	2698.77668369927	0
3	84099	2702.85502711502	1
3	84099	2702.85502711502	0
3	84434	2713.99201602589	1
3	84434	2713.99201602589	0
3	84881	2718.30933439003	1
3	84881	2718.30933439003	0
3	85031	2723.22625542754	1
3	85031	2723.22625542754	0
3	85425	2736.82647501079	1
3	85425	2736.82647501079	0
3	86403	2777.35258094212	1
3	86403	2777.35258094212	0
3	86868	2800.67617666219	1
3	86868	2800.67617666219	0
3	86998	2805.08208293648	1
3	86998	2805.08208293648	0
3	87294	2820.50000541599	1
3	87294	2820.50000541599	0
3	87992	2839.56639168108	1
3	87992	2839.56639168108	0
3	88181	2844.11697623659	1
3	88181	2844.11697623659	0
3	88311	2847.47768188474	1
3	88311	2847.47768188474	0
3	88473	2859.65892799195	1
3	88473	2859.65892799195	0
3	88581	2862.35426556122	1
3	88581	2862.35426556122	0
3	88765	2869.15603744901	1
3	88765	2869.15603744901	0
3	88955	2874.04107869195	1
3	88955	2874.04107869195	0
3	89200	2886.64197258578	1
3	89200	2886.64197258578	0
3	89541	2891.92314343475	1
3	89541	2891.92314343475	0
3	89694	2894.37912438159	1
3	89694	2894.37912438159	0
3	89827	2897.21433426173	1
3	89884	2897.43001902194	0
3	89938	2899.07249467623	1
3	89938	2899.07249467623	0
3	90068	2901.64049788115	1
3	90151	2903.76687446098	0
3	90216	2904.35487619474	1
3	90216	2904.35487619474	0
3	90487	2907.95574102996	1
3	90487	2907.95574102996	0
3	90811	2917.34381801596	1
3	90811	2917.34381801596	0
3	90947	2925.55496576418	1
3	90947	2925.55496576418	0
3	91067	2929.35147265302	1
3	91067	2929.35147265302	0
3	91207	2931.98562721883	1
3	91207	2931.98562721883	0
3	91418	2934.84705644093	1
3	91418	2934.84705644093	0
3	91934	2952.8467350181	1
3	91934	2952.8467350181	0
3	92186	2957.78276286981	1
3	92186	2957.78276286981	0
3	92389	2975.13891766869	1
3	92389	2975.13891766869	0
3	92548	2981.35490686636	1
3	92548	2981.35490686636	0
3	92866	2999.73421071908	1
3	92866	2999.73421071908	0
3	93543	3031.81189116423	1
3	93543	3031.81189116423	0
3	93700	3035.38613897652	1
3	93700	3035.38613897652	0
3	93939	3037.71143660625	1
3	93939	3037.71143660625	0
3	94152	3040.06623316334	1
3	94177	3040.38476382279	0
3	94317	3043.10497303443	1
3	94317	3043.10497303443	0
3	94431	3055.52464307045	1
3	94431	3055.52464307045	0
3	94568	3059.93801672164	1
3	94568	3059.93801672164	0
3	95117	3074.19509728922	1
3	95117	3074.19509728922	0
3	95377	3082.96798065178	1
3	95377	3082.96798065178	0
3	95729	3092.07415801497	1
3	95729	3092.07415801497	0
3	95865	3094.61954950434	1
3	95873	3096.35239670407	0
3	96085	3099.47087945476	1
3	96085	3099.47087945476	0
3	96269	3107.29743719501	1
3	96269	3107.29743719501	0
3	96385	3110.02619069709	1
3	96400	3110.5740475024	0
3	96615	3115.15642143977	1
3	96615	3115.15642143977	0
3	97081	3133.25979857562	1
3	97081	3133.25979857562	0
3	97438	3140.22221019314	1
3	97438	3140.22221019314	0
3	97599	3141.98219284423	1
3	97599	3141.98219284423	0
3	97821	3149.66557964446	1
3	97821	3149.66557964446	0
3	97979	3159.52339244375	1
3	97979	3159.52339244375	0
3	98275	3170.22843185281	1
3	98275	3170.22843185281	0
3	98517	3176.08523287185	1
3	98517	3176.08523287185	0
3	98646	3193.09468365813	1
3	98646	3193.09468365813	0
3	99210	3206.29399640976	1
3	99210	3206.29399640976	0
3	100050	3239.24325887351	1
3	100050	3239.24325887351	0
3	100333	3244.37372598897	1
3	100333	3244.37372598897	0
3	100859	3256.09542999881	1
3	100859	3256.09542999881	0
3	100993	3260.13345785051	1
3	100993	3260.13345785051	0
3	101216	3268.1471976506	1
3	101216	3268.1471976506	0
3	101466	3281.65891549957	1
3	101466	3281.65891549957	0
3	101794	3287.13926445385	1
3	101794	3287.13926445385	0
3	102050	3291.87083214935	1
3	102050	3291.87083214935	0
3	102277	3294.90594222875	1
3	102277	3294.90594222875	0
3	102435	3298.64928306969	1
3	102435	3298.64928306969	0
3	102785	3317.3473847912	1
3	102785	3317.3473847912	0
3	103055	3335.92611350285	1
3	103055	3335.92611350285	0
3	103267	3342.75150247586	1
3	103267	3342.75150247586	0
3	103372	3344.57695001587	1
3	103372	3344.57695001587	0
3	103609	3348.03243125217	1
3	103609	3348.03243125217	0
3	103746	3352.19277085503	1
3	103746	3352.19277085503	0
3	104005	3356.64357965901	1
3	104005	3356.64357965901	0
3	104169	3365.1561834764	1
3	104169	3365.1561834764	0
3	104275	3369.9110366289	1
3	104275	3369.9110366289	0
3	104456	3372.3373557	1
3	104456	3372.3373557	0
3	104865	3393.32723071721	1
3	104865	3393.32723071721	0
3	105509	3405.07833154406	1
3	105509	3405.07833154406	0
3	105675	3411.23228703707	1
3	105675	3411.23228703707	0
3	106025	3430.0982493803	1
3	106025	3430.0982493803	0
3	106177	3434.93922729275	1
3	106177	3434.93922729275	0
3	106388	3439.09076806148	1
3	106388	3439.09076806148	0
3	106533	3441.8606413214	1
3	106533	3441.8606413214	0
3	106720	3445.15179586788	1
3	106720	3445.15179586788	0
3	107457	3471.57574301449	1
3	107457	3471.57574301449	0
3	107577	3477.70825283488	1
3	107577	3477.70825283488	0
3	107709	3484.63993876287	1
3	107709	3484.63993876287	0
3	108099	3491.54006096669	1
3	108099	3491.54006096669	0
3	108236	3499.25890147771	1
3	108236	3499.25890147771	0
3	108771	3515.04214706245	1
3	108771	3515.04214706245	0
3	109032	3517.61862960263	1
3	109032	3517.61862960263	0
3	109286	3529.3148736199	1
3	109286	3529.3148736199	0
3	109392	3531.68828112631	1
3	109392	3531.68828112631	0
3	109522	3541.07736679664	1
3	109522	3541.07736679664	0
3	109656	3549.9087768384	1
3	109656	3549.9087768384	0
3	109782	3553.73535494392	1
3	109782	3553.73535494392	0
3	110034	3563.2775971295	1
3	110034	3563.2775971295	0
3	110923	3596.00480829259	1
3	110923	3596.00480829259	0
4	5252	68.93201812143	1.71213076271
4	5659	96.45948765417	1.7121304186
4	6057	180.56590583999	1.71213216661
4	6342	188.68023114655	1.71213033308
4	6782	192.77032356011	1.71213006249
4	7269	200.28379625938	1.7121302513
4	7992	206.34506137161	1.71213012171
4	8568	211.12657656032	1.71213005169
4	8889	220.58632954157	1.71213056461
4	9332	226.40593527622	1.71213040522
4	9647	232.70562864843	1.712131082
4	9810	237.32855827778	1.71213021187
4	10155	245.10936911496	1.71212979848
4	10345	248.16785622379	1.71212969731
4	10491	250.77118314496	1.71213032681
4	10636	259.41519749495	1.71213076271
4	10961	268.04387627673	1.7121304186
4	11861	371.12759547367	1.712130078
4	12300	376.06898382897	1.71212966261
4	12820	384.22584921825	1.71213001598
4	13469	393.85007461812	1.71213006249
4	13760	397.33146042711	1.71213005169
4	13917	399.47214345996	1.71213061683
4	14219	408.14086933201	1.71213040544
4	14587	413.8374393022	1.71213163586
4	15321	425.46966165024	1.71213256344
4	15496	432.32507438969	1.71213032681
4	15881	439.25609313924	1.71213224778
4	16204	445.06492446599	2.5315105023
4	16314	452.41924984387	1.71212969731
4	16440	455.66405281249	1.71212979848
4	16598	458.35959775482	2.27313098053
4	17627	548.60538002	1.71212966261
4	17823	557.69807109493	1.71213033308
4	18153	563.88606305619	1.71213344778
4	19472	588.76620671322	1.7121307181
4	19789	590.79751572033	1.71213005169
4	20042	593.76631939465	1.71213001598
4	20459	601.93118919994	1.71213006249
4	21125	625.47335517528	1.71212974378
4	21274	629.80198802383	1.71213012492
4	21389	633.71454649561	1.71213021187
4	21547	636.94234635802	1.8805549512
4	22221	648.07028097195	1.71212979848
4	22467	669.48347965238	1.71212969731
4	22757	705.9167068335	1.7121337285
4	23563	746.22467901364	1.71213061683
4	23884	752.12943128387	1.71213012171
4	24042	754.82529504144	1.71213212216
4	24473	765.06516756468	1.71213040544
4	24686	767.90320047812	1.96025812092
4	24968	770.23764853219	1.712130078
4	25422	778.43100637801	1.71213005169
4	25775	784.02795071087	1.71213040522
4	26017	794.30105404952	1.71213006249
4	26365	801.5502013931	1.71212974378
4	26802	814.84464405653	1.71213012492
4	26975	820.9085647567	1.71213021187
4	27634	826.15007815882	1.71213230248
4	27966	829.32598512433	1.71213067438
4	28296	845.41171873058	1.71213060073
4	28407	857.63617989307	1.71212969731
4	28809	899.34084982581	1.71212966261
4	29102	917.45033988374	1.7121302513
4	29502	929.63627131295	1.71213012171
4	29873	934.92901351051	1.71213061683
4	30528	956.03946933071	1.71213290922
4	30773	966.435080278	1.71213107124
4	31038	975.85214687894	1.71213005169
4	31304	979.96326255303	1.71213040544
4	31500	982.26399562165	1.71213033308
4	31627	985.39060986994	1.71213006249
4	31755	989.8191733914	1.71212974378
4	32041	993.79694612805	1.71213021187
4	32239	995.9913930052	1.71213012492
4	32552	1000.34892317854	1.71213076271
4	32739	1003.70917508932	1.7121307181
4	33925	1039.8628000231	1.71213257821
4	34249	1053.48373711855	1.71212979848
4	34817	1089.98433578843	1.71213220131
4	34981	1094.75339248737	1.71212966261
4	35218	1102.39676714302	1.71213012171
4	35460	1109.17374488773	1.7121302513
4	36085	1130.961230002	1.712130078
4	36285	1141.2077930322	1.71213056461
4	36454	1148.05617764877	1.71213005169
4	36747	1152.28545238014	1.71213040544
4	36903	1155.36392625416	1.71213107124
4	37026	1163.64466969912	1.71213033308
4	37382	1173.6837898611	1.7121311909
4	37662	1176.85932124377	1.71213012492
4	38002	1185.00242419012	8.151969488
4	38059	1186.77361169794	6.13455875116
4	38237	1188.04724096527	2.29832449518
4	38668	1198.21743206298	1.71212974378
4	39236	1210.64677453355	1.71213283081
4	39944	1227.01833960072	1.71213006249
4	40321	1255.29316246229	1.7121312245
4	40640	1266.2165175662	1.71212969731
4	40773	1269.66095847967	1.7121304186
4	41134	1303.11998568746	1.712130078
4	41383	1312.46578397898	1.71213056461
4	41497	1323.06027521602	1.7121302513
4	41681	1334.45258627651	1.71213262571
4	41793	1337.12978326858	1.71213040522
4	42135	1343.03612919414	1.71212966261
4	42345	1345.92217207968	1.71213107124
4	42750	1357.05164972824	1.7121307181
4	42859	1360.04221260045	1.71213005169
4	43013	1361.88971038392	1.71213206594
4	43195	1363.66646620329	1.71213076271
4	44615	1397.10067735661	1.71212979848
4	44830	1404.12398489723	1.71213060073
4	45199	1415.287957922	1.71212974378
4	45421	1419.32473018881	1.71213211581
4	45545	1426.51035243901	1.71213033308
4	45775	1443.21155648619	1.71213006249
4	45900	1452.57568008565	1.71213021187
4	46413	1480.22142752839	1.71213220131
4	47178	1505.84614986403	1.712130078
4	47458	1519.43095605769	1.71213107124
4	47676	1528.18652630982	1.71213040544
4	47907	1530.29615415688	1.71213012171
4	48051	1538.78169753435	1.71212966261
4	48179	1541.61330251594	1.71213005169
4	48421	1544.16536796851	1.71213001598
4	48982	1564.73957614829	1.71213042861
4	49140	1567.04556243601	1.71213218214
4	49479	1574.95743605735	1.71213012492
4	49732	1578.03682198916	2.73246177766
4	50676	1608.38040476673	1.71213310473
4	50895	1629.22521695601	1.71213021187
4	51055	1633.72888323036	3.2664546626
4	51235	1642.56508012357	1.71213094378
4	51401	1651.94885911185	1.71212969731
4	51688	1656.92069352592	1.71212974378
4	51904	1668.18225231203	1.7121312245
4	52473	1691.79702315979	1.71213040522
4	52599	1697.32340681467	1.71212979848
4	52787	1700.12528758879	1.71213006249
4	52969	1703.83453796833	1.7121304186
4	53158	1708.32089317969	1.71213012171
4	53363	1711.21784107948	1.71213107124
4	53477	1714.60534386161	1.71212966261
4	53740	1725.57124917158	1.7121311909
4	54005	1729.79626360892	1.71213255569
4	54676	1749.80529468519	1.71213012492
4	54815	1751.7919537355	1.71213265529
4	55037	1758.52392718115	1.71213067438
4	55719	1767.17837443699	1.71213032681
4	55845	1770.61025385807	1.71213040544
4	56377	1785.40805597376	1.71213061683
4	56705	1799.02602801926	1.71213001598
4	56879	1800.75214259806	1.71213021187
4	57037	1807.835537024	1.71213033308
4	57178	1817.64366086392	1.7121315675
4	57393	1842.25776329759	1.71212974378
4	57526	1845.77330361595	1.71212969731
4	57871	1855.15706258346	1.712132582
4	58050	1857.11871312313	1.71213257821
4	58272	1876.0134241522	1.71212979848
4	58518	1884.15253053851	1.71213040522
4	58642	1886.53707179394	1.71213012171
4	58777	1888.8469944341	1.71213006249
4	59232	1902.03599313688	1.71212966261
4	59572	1905.05253360257	1.71213005169
4	60287	1921.60499065682	1.71213165931
4	60513	1927.74355084322	1.71213012492
4	60876	1941.99355901421	1.712131082
4	61060	1944.81757335785	2.45312418642
4	61247	1946.45091453129	2.25838176673
4	61730	1962.68655102453	1.71213061683
4	61960	1972.81174769036	1.71213056461
4	62131	1980.25530371171	1.71213293261
4	62586	1992.05772550741	1.71213163586
4	62824	1998.67850941603	1.71213265529
4	62941	2016.53371747318	1.71213001598
4	63185	2023.51341981897	1.71213033308
4	63299	2025.67673135274	1.71213021187
4	63672	2034.78468100574	1.7121312245
4	63786	2044.96219078274	1.71212974378
4	64026	2050.34897476676	1.71212969731
4	64158	2055.69554988043	1.7121304186
4	64351	2060.06663383423	1.71213040522
4	64534	2064.45305725051	1.71213006249
4	64877	2083.31494132408	1.71212979848
4	65347	2093.68599150594	1.712130078
4	65601	2098.15159401068	1.71213180096
4	66028	2103.99155503679	1.71213216661
4	66218	2107.35307322506	2.04969421343
4	67118	2139.8016595486	1.712131082
4	67277	2145.77075792854	1.7121302513
4	67620	2156.46750301435	1.71213042861
4	67809	2159.74057247209	1.71213067438
4	68506	2196.19334972261	1.71213033308
4	68781	2203.72861910992	1.71213021187
4	69217	2215.72419922893	1.7121312245
4	69348	2220.50234028443	1.71213094378
4	69833	2231.51562510877	1.71213290922
4	69944	2240.36279873451	1.71213012171
4	70237	2266.53206048696	1.71212969731
4	70416	2268.78866224037	1.71212974378
4	70824	2284.32196678991	1.71213001598
4	71083	2286.76907102272	1.76237349856
4	71362	2291.91786423739	1.71212979848
4	71623	2294.42812007714	1.7121307181
4	71980	2308.57530481343	1.71213076271
4	72100	2314.3317380013	1.71213032681
4	72218	2317.32364568158	1.71213005169
4	72428	2325.06645576984	1.71213107124
4	72724	2333.47870278443	1.71213040544
4	73139	2340.85664465135	1.71213056461
4	73868	2368.27558675587	1.71213033308
4	74828	2388.23844138098	1.7121312245
4	74935	2391.75911419539	1.71213067438
4	75417	2401.85439425447	1.71213094378
4	75524	2415.44185281439	1.7121304186
4	75657	2420.57673837028	1.71213012171
4	75797	2425.59663287487	1.71213040522
4	75944	2438.91399119653	1.71213134806
4	76590	2470.38609794711	1.71212974378
4	76886	2483.75011689638	1.71213256649
4	77109	2485.94960846173	1.71213012492
4	77801	2506.24907103897	1.71212979848
4	78110	2513.76469367962	1.71213056461
4	78444	2519.38577227246	1.71213005169
4	78691	2525.6006781379	1.71213040544
4	80660	2593.36240172855	1.71213042861
4	81503	2628.93099966883	1.71213012171
4	81658	2633.64715952429	1.7121315675
4	82004	2651.01279533749	1.71213134806
4	82456	2665.34770315953	1.7121307181
4	82576	2673.17465900676	1.71213006249
4	82715	2687.80065371675	1.71213012492
4	83731	2698.77668369927	1.712130078
4	84099	2702.85502711502	1.71213076271
4	84434	2713.99201602589	1.71212966261
4	84881	2718.30933439003	1.7121302513
4	85031	2723.22625542754	1.71213040544
4	85425	2736.82647501079	1.71213310473
4	86403	2777.35258094212	1.71213021187
4	86868	2800.67617666219	1.71213012171
4	86998	2805.08208293648	1.7121304186
4	87294	2820.50000541599	1.71213067438
4	87992	2839.56639168108	1.71213134806
4	88181	2844.11697623659	1.71213162213
4	88473	2859.65892799195	1.71213262892
4	88581	2862.35426556122	1.71213006249
4	88765	2869.15603744901	1.71213005169
4	88955	2874.04107869195	1.71213001598
4	89200	2886.64197258578	1.712130078
4	89694	2894.37912438159	1.71213107124
4	89884	2897.43001902194	1.92781552292
4	89938	2899.07249467623	1.71213040544
4	90216	2904.35487619474	1.71213056461
4	90487	2907.95574102996	1.71212979848
4	90811	2917.34381801596	1.71213061683
4	90947	2925.55496576418	1.71213094378
4	91067	2929.35147265302	1.71213033308
4	91207	2931.98562721883	1.712131082
4	91418	2934.84705644093	1.71212974378
4	91934	2952.8467350181	1.71213021187
4	92186	2957.78276286981	1.71213040522
4	92389	2975.13891766869	1.7121312245
4	92548	2981.35490686636	1.71213262571
4	92866	2999.73421071908	1.71213042861
4	93543	3031.81189116423	1.7121304186
4	93939	3037.71143660625	1.71213275598
4	94177	3040.38476382279	2.03066133383
4	94317	3043.10497303443	1.7121315675
4	94568	3059.93801672164	1.712130078
4	95377	3082.96798065178	1.71213032681
4	95873	3096.35239670407	3.44497796244
4	96085	3099.47087945476	1.71213006249
4	96269	3107.29743719501	1.71213283708
4	96400	3110.5740475024	2.25998693023
4	96615	3115.15642143977	1.71212966261
4	97081	3133.25979857562	1.71213040522
4	97438	3140.22221019314	1.71213060073
4	97599	3141.98219284423	1.71212974378
4	97821	3149.66557964446	1.712131082
4	97979	3159.52339244375	1.71212979848
4	98275	3170.22843185281	1.71213021187
4	98517	3176.08523287185	1.71213012171
4	98646	3193.09468365813	1.71213042861
4	99210	3206.29399640976	1.7121304186
4	100050	3239.24325887351	1.71213317838
4	100333	3244.37372598897	1.712130078
4	100859	3256.09542999881	1.71213107124
4	100993	3260.13345785051	1.71213165931
4	101216	3268.1471976506	1.71213032681
4	101466	3281.65891549957	1.71213056461
4	101794	3287.13926445385	1.71213006249
4	102277	3294.90594222875	1.71212969731
4	102435	3298.64928306969	1.71213076271
4	102785	3317.3473847912	1.71213060073
4	103267	3342.75150247586	1.71213163586
4	103372	3344.57695001587	1.71212966261
4	103609	3348.03243125217	1.71213005169
4	103746	3352.19277085503	1.71213012171
4	104005	3356.64357965901	1.71213094378
4	104456	3372.3373557	1.71212979848
4	104865	3393.32723071721	1.7121304186
4	105509	3405.07833154406	1.7121307181
4	105675	3411.23228703707	1.71213067438
4	106025	3430.0982493803	1.71213001598
4	106177	3434.93922729275	1.71213165931
4	106388	3439.09076806148	1.7121302513
4	106533	3441.8606413214	1.712130078
4	106720	3445.15179586788	1.71213032681
4	107457	3471.57574301449	1.71213033308
4	107709	3484.63993876287	1.71213006249
4	108099	3491.54006096669	1.71213326671
4	108236	3499.25890147771	1.71213060073
4	108771	3515.04214706245	1.71212969731
4	109032	3517.61862960263	1.71213061683
4	109286	3529.3148736199	1.712131082
4	109522	3541.07736679664	1.71213021187
4	109656	3549.9087768384	1.71213005169
4	109782	3553.73535494392	1.71213042861
4	110034	3563.2775971295	1.71213040522
4	110923	3596.00480829259	1.71213067438
5	5252	68.93201812143	1.71213076271
5	5659	96.45948765417	1.7121304186
5	6057	180.56590583999	1.71213216661
5	6342	188.68023114655	1.71213033308
5	6782	192.77032356011	1.71213006249
5	7269	200.28379625938	1.7121302513
5	7992	206.34506137161	1.71213012171
5	8568	211.12657656032	1.71213005169
5	8889	220.58632954157	1.71213056461
5	9332	226.40593527622	1.71213040522
5	9647	232.70562864843	1.712131082
5	9810	237.32855827778	1.71213021187
5	10155	245.10936911496	1.71212979848
5	10345	248.16785622379	1.71212969731
5	10491	250.77118314496	1.71213032681
5	10636	259.41519749495	1.71213076271
5	10961	268.04387627673	1.7121304186
5	11861	371.12759547367	1.712130078
5	12300	376.06898382897	1.71212966261
5	12820	384.22584921825	1.71213001598
5	13469	393.85007461812	1.71213006249
5	13760	397.33146042711	1.71213005169
5	13917	399.47214345996	1.71213061683
5	14219	408.14086933201	1.71213040544
5	14587	413.8374393022	1.71213163586
5	15321	425.46966165024	1.71213256344
5	15496	432.32507438969	1.71213032681
5	15881	439.25609313924	1.71213224778
5	16204	445.06492446599	2.5315105023
5	16314	452.41924984387	1.71212969731
5	16440	455.66405281249	1.71212979848
5	16598	458.35959775482	2.27313098053
5	17627	548.60538002	1.71212966261
5	17823	557.69807109493	1.71213033308
5	18153	563.88606305619	1.71213344778
5	19472	588.76620671322	1.7121307181
5	19789	590.79751572033	1.71213005169
5	20042	593.76631939465	1.71213001598
5	20459	601.93118919994	1.71213006249
5	21125	625.47335517528	1.71212974378
5	21274	629.80198802383	1.71213012492
5	21389	633.71454649561	1.71213021187
5	21547	636.94234635802	1.8805549512
5	22221	648.07028097195	1.71212979848
5	22467	669.48347965238	1.71212969731
5	22757	705.9167068335	1.7121337285
5	23563	746.22467901364	1.71213061683
5	23884	752.12943128387	1.71213012171
5	24042	754.82529504144	1.71213212216
5	24473	765.06516756468	1.71213040544
5	24686	767.90320047812	1.96025812092
5	24968	770.23764853219	1.712130078
5	25422	778.43100637801	1.71213005169
5	25775	784.02795071087	1.71213040522
5	26017	794.30105404952	1.71213006249
5	26365	801.5502013931	1.71212974378
5	26802	814.84464405653	1.71213012492
5	26975	820.9085647567	1.71213021187
5	27634	826.15007815882	1.71213230248
5	27966	829.32598512433	1.71213067438
5	28296	845.41171873058	1.71213060073
5	28407	857.63617989307	1.71212969731
5	28809	899.34084982581	1.71212966261
5	29102	917.45033988374	1.7121302513
5	29502	929.63627131295	1.71213012171
5	29873	934.92901351051	1.71213061683
5	30528	956.03946933071	1.71213290922
5	30773	966.435080278	1.71213107124
5	31038	975.85214687894	1.71213005169
5	31304	979.96326255303	1.71213040544
5	31500	982.26399562165	1.71213033308
5	31627	985.39060986994	1.71213006249
5	31755	989.8191733914	1.71212974378
5	32041	993.79694612805	1.71213021187
5	32239	995.9913930052	1.71213012492
5	32552	1000.34892317854	1.71213076271
5	32739	1003.70917508932	1.7121307181
5	33925	1039.8628000231	1.71213257821
5	34249	1053.48373711855	1.71212979848
5	34817	1089.98433578843	1.71213220131
5	34981	1094.75339248737	1.71212966261
5	35218	1102.39676714302	1.71213012171
5	35460	1109.17374488773	1.7121302513
5	36085	1130.961230002	1.712130078
5	36285	1141.2077930322	1.71213056461
5	36454	1148.05617764877	1.71213005169
5	36747	1152.28545238014	1.71213040544
5	36903	1155.36392625416	1.71213107124
5	37026	1163.64466969912	1.71213033308
5	37382	1173.6837898611	1.7121311909
5	37662	1176.85932124377	1.71213012492
5	38002	1185.00242419012	8.151969488
5	38059	1186.77361169794	6.13455875116
5	38237	1188.04724096527	2.29832449518
5	38668	1198.21743206298	1.71212974378
5	39236	1210.64677453355	1.71213283081
5	39944	1227.01833960072	1.71213006249
5	40321	1255.29316246229	1.7121312245
5	40640	1266.2165175662	1.71212969731
5	40773	1269.66095847967	1.7121304186
5	41134	1303.11998568746	1.712130078
5	41383	1312.46578397898	1.71213056461
5	41497	1323.06027521602	1.7121302513
5	41681	1334.45258627651	1.71213262571
5	41793	1337.12978326858	1.71213040522
5	42135	1343.03612919414	1.71212966261
5	42345	1345.92217207968	1.71213107124
5	42750	1357.05164972824	1.7121307181
5	42859	1360.04221260045	1.71213005169
5	43013	1361.88971038392	1.71213206594
5	43195	1363.66646620329	1.71213076271
5	44615	1397.10067735661	1.71212979848
5	44830	1404.12398489723	1.71213060073
5	45199	1415.287957922	1.71212974378
5	45421	1419.32473018881	1.71213211581
5	45545	1426.51035243901	1.71213033308
5	45775	1443.21155648619	1.71213006249
5	45900	1452.57568008565	1.71213021187
5	46413	1480.22142752839	1.71213220131
5	47178	1505.84614986403	1.712130078
5	47458	1519.43095605769	1.71213107124
5	47676	1528.18652630982	1.71213040544
5	47907	1530.29615415688	1.71213012171
5	48051	1538.78169753435	1.71212966261
5	48179	1541.61330251594	1.71213005169
5	48421	1544.16536796851	1.71213001598
5	48982	1564.73957614829	1.71213042861
5	49140	1567.04556243601	1.71213218214
5	49479	1574.95743605735	1.71213012492
5	49732	1578.03682198916	2.73246177766
5	50676	1608.38040476673	1.71213310473
5	50895	1629.22521695601	1.71213021187
5	51055	1633.72888323036	3.2664546626
5	51235	1642.56508012357	1.71213094378
5	51401	1651.94885911185	1.71212969731
5	51688	1656.92069352592	1.71212974378
5	51904	1668.18225231203	1.7121312245
5	52473	1691.79702315979	1.71213040522
5	52599	1697.32340681467	1.71212979848
5	52787	1700.12528758879	1.71213006249
5	52969	1703.83453796833	1.7121304186
5	53158	1708.32089317969	1.71213012171
5	53363	1711.21784107948	1.71213107124
5	53477	1714.60534386161	1.71212966261
5	53740	1725.57124917158	1.7121311909
5	54005	1729.79626360892	1.71213255569
5	54676	1749.80529468519	1.71213012492
5	54815	1751.7919537355	1.71213265529
5	55037	1758.52392718115	1.71213067438
5	55719	1767.17837443699	1.71213032681
5	55845	1770.61025385807	1.71213040544
5	56377	1785.40805597376	1.71213061683
5	56705	1799.02602801926	1.71213001598
5	56879	1800.75214259806	1.71213021187
5	57037	1807.835537024	1.71213033308
5	57178	1817.64366086392	1.7121315675
5	57393	1842.25776329759	1.71212974378
5	57526	1845.77330361595	1.71212969731
5	57871	1855.15706258346	1.712132582
5	58050	1857.11871312313	1.71213257821
5	58272	1876.0134241522	1.71212979848
5	58518	1884.15253053851	1.71213040522
5	58642	1886.53707179394	1.71213012171
5	58777	1888.8469944341	1.71213006249
5	59232	1902.03599313688	1.71212966261
5	59572	1905.05253360257	1.71213005169
5	60287	1921.60499065682	1.71213165931
5	60513	1927.74355084322	1.71213012492
5	60876	1941.99355901421	1.712131082
5	61060	1944.81757335785	2.45312418642
5	61247	1946.45091453129	2.25838176673
5	61730	1962.68655102453	1.71213061683
5	61960	1972.81174769036	1.71213056461
5	62131	1980.25530371171	1.71213293261
5	62586	1992.05772550741	1.71213163586
5	62824	1998.67850941603	1.71213265529
5	62941	2016.53371747318	1.71213001598
5	63185	2023.51341981897	1.71213033308
5	63299	2025.67673135274	1.71213021187
5	63672	2034.78468100574	1.7121312245
5	63786	2044.96219078274	1.71212974378
5	64026	2050.34897476676	1.71212969731
5	64158	2055.69554988043	1.7121304186
5	64351	2060.06663383423	1.71213040522
5	64534	2064.45305725051	1.71213006249
5	64877	2083.31494132408	1.71212979848
5	65347	2093.68599150594	1.712130078
5	65601	2098.15159401068	1.71213180096
5	66028	2103.99155503679	1.71213216661
5	66218	2107.35307322506	2.04969421343
5	67118	2139.8016595486	1.712131082
5	67277	2145.77075792854	1.7121302513
5	67620	2156.46750301435	1.71213042861
5	67809	2159.74057247209	1.71213067438
5	68506	2196.19334972261	1.71213033308
5	68781	2203.72861910992	1.71213021187
5	69217	2215.72419922893	1.7121312245
5	69348	2220.50234028443	1.71213094378
5	69833	2231.51562510877	1.71213290922
5	69944	2240.36279873451	1.71213012171
5	70237	2266.53206048696	1.71212969731
5	70416	2268.78866224037	1.71212974378
5	70824	2284.32196678991	1.71213001598
5	71083	2286.76907102272	1.76237349856
5	71362	2291.91786423739	1.71212979848
5	71623	2294.42812007714	1.7121307181
5	71980	2308.57530481343	1.71213076271
5	72100	2314.3317380013	1.71213032681
5	72218	2317.32364568158	1.71213005169
5	72428	2325.06645576984	1.71213107124
5	72724	2333.47870278443	1.71213040544
5	73139	2340.85664465135	1.71213056461
5	73868	2368.27558675587	1.71213033308
5	74828	2388.23844138098	1.7121312245
5	74935	2391.75911419539	1.71213067438
5	75417	2401.85439425447	1.71213094378
5	75524	2415.44185281439	1.7121304186
5	75657	2420.57673837028	1.71213012171
5	75797	2425.59663287487	1.71213040522
5	75944	2438.91399119653	1.71213134806
5	76590	2470.38609794711	1.71212974378
5	76886	2483.75011689638	1.71213256649
5	77109	2485.94960846173	1.71213012492
5	77801	2506.24907103897	1.71212979848
5	78110	2513.76469367962	1.71213056461
5	78444	2519.38577227246	1.71213005169
5	78691	2525.6006781379	1.71213040544
5	80660	2593.36240172855	1.71213042861
5	81503	2628.93099966883	1.71213012171
5	81658	2633.64715952429	1.7121315675
5	82004	2651.01279533749	1.71213134806
5	82456	2665.34770315953	1.7121307181
5	82576	2673.17465900676	1.71213006249
5	82715	2687.80065371675	1.71213012492
5	83731	2698.77668369927	1.712130078
5	84099	2702.85502711502	1.71213076271
5	84434	2713.99201602589	1.71212966261
5	84881	2718.30933439003	1.7121302513
5	85031	2723.22625542754	1.71213040544
5	85425	2736.82647501079	1.71213310473
5	86403	2777.35258094212	1.71213021187
5	86868	2800.67617666219	1.71213012171
5	86998	2805.08208293648	1.7121304186
5	87294	2820.50000541599	1.71213067438
5	87992	2839.56639168108	1.71213134806
5	88181	2844.11697623659	1.71213162213
5	88473	2859.65892799195	1.71213262892
5	88581	2862.35426556122	1.71213006249
5	88765	2869.15603744901	1.71213005169
5	88955	2874.04107869195	1.71213001598
5	89200	2886.64197258578	1.712130078
5	89694	2894.37912438159	1.71213107124
5	89884	2897.43001902194	1.92781552292
5	89938	2899.07249467623	1.71213040544
5	90216	2904.35487619474	1.71213056461
5	90487	2907.95574102996	1.71212979848
5	90811	2917.34381801596	1.71213061683
5	90947	2925.55496576418	1.71213094378
5	91067	2929.35147265302	1.71213033308
5	91207	2931.98562721883	1.712131082
5	91418	2934.84705644093	1.71212974378
5	91934	2952.8467350181	1.71213021187
5	92186	2957.78276286981	1.71213040522
5	92389	2975.13891766869	1.7121312245
5	92548	2981.35490686636	1.71213262571
5	92866	2999.73421071908	1.71213042861
5	93543	3031.81189116423	1.7121304186
5	93939	3037.71143660625	1.71213275598
5	94177	3040.38476382279	2.03066133383
5	94317	3043.10497303443	1.7121315675
5	94568	3059.93801672164	1.712130078
5	95377	3082.96798065178	1.71213032681
5	95873	3096.35239670407	3.44497796244
5	96085	3099.47087945476	1.71213006249
5	96269	3107.29743719501	1.71213283708
5	96400	3110.5740475024	2.25998693023
5	96615	3115.15642143977	1.71212966261
5	97081	3133.25979857562	1.71213040522
5	97438	3140.22221019314	1.71213060073
5	97599	3141.98219284423	1.71212974378
5	97821	3149.66557964446	1.712131082
5	97979	3159.52339244375	1.71212979848
5	98275	3170.22843185281	1.71213021187
5	98517	3176.08523287185	1.71213012171
5	98646	3193.09468365813	1.71213042861
5	99210	3206.29399640976	1.7121304186
5	100050	3239.24325887351	1.71213317838
5	100333	3244.37372598897	1.712130078
5	100859	3256.09542999881	1.71213107124
5	100993	3260.13345785051	1.71213165931
5	101216	3268.1471976506	1.71213032681
5	101466	3281.65891549957	1.71213056461
5	101794	3287.13926445385	1.71213006249
5	102277	3294.90594222875	1.71212969731
5	102435	3298.64928306969	1.71213076271
5	102785	3317.3473847912	1.71213060073
5	103267	3342.75150247586	1.71213163586
5	103372	3344.57695001587	1.71212966261
5	103609	3348.03243125217	1.71213005169
5	103746	3352.19277085503	1.71213012171
5	104005	3356.64357965901	1.71213094378
5	104456	3372.3373557	1.71212979848
5	104865	3393.32723071721	1.7121304186
5	105509	3405.07833154406	1.7121307181
5	105675	3411.23228703707	1.71213067438
5	106025	3430.0982493803	1.71213001598
5	106177	3434.93922729275	1.71213165931
5	106388	3439.09076806148	1.7121302513
5	106533	3441.8606413214	1.712130078
5	106720	3445.15179586788	1.71213032681
5	107457	3471.57574301449	1.71213033308
5	107709	3484.63993876287	1.71213006249
5	108099	3491.54006096669	1.71213326671
5	108236	3499.25890147771	1.71213060073
5	108771	3515.04214706245	1.71212969731
5	109032	3517.61862960263	1.71213061683
5	109286	3529.3148736199	1.712131082
5	109522	3541.07736679664	1.71213021187
5	109656	3549.9087768384	1.71213005169
5	109782	3553.73535494392	1.71213042861
5	110034	3563.2775971295	1.71213040522
5	110923	3596.00480829259	1.71213067438
6	5316	72.63252411087	30.456690255552
6	10008	244.25969059284	254.36150454704
6	15191	423.7575290868	511.95196582605
6	20486	605.2318739125	484.34791740728
6	27689	826.64862989274	365.96204301276
6	32426	999.70555341607	703.73027174381
6	37445	1176.14919594339	1308.5501159473
6	43425	1372.21303343479	1497.028699941
6	48564	1549.02242396154	518.90009367374
6	54070	1733.64741381592	463.731051512
6	59937	1912.45967712881	577.67889455768
6	65363	2094.17907806549	150.40272705781
6	72306	2323.4832987095	92.39901911275
6	78773	2528.8694567338	150.90165160079
6	85171	2734.29163390275	109.98179811547
6	92557	2991.65558323194	1224.6063606871
6	98303	3170.26264908769	1387.3806600504
6	107843	3489.78142523313	291.2988430902
7	5431	85.41148430495	19.930069729556
7	11096	270.34708883675	344.25189256429
7	16607	461.29580188513	12.569803195623
7	21713	640.46065255246	9.8404975129771
7	28176	843.69958812985	102.92574330682
7	32914	1015.26651579985	600.99203409646
7	39086	1209.94041354611	204.48799563942
7	44710	1402.4118542965	376.91818093551
7	50475	1606.668271662	422.76431020623
7	56257	1784.45346185652	80.071700643335
7	62187	1981.09304877159	877.92704460832
7	67524	2156.33270309174	2434.8767441839
7	73488	2350.79230658294	47.438928120485
7	79337	2543.45168731019	479.71709450915
7	85224	2735.11434190606	62.400916793079
7	91836	2951.67316564629	115.53961593385
7	97216	3138.51007959241	2458.843468947
7	102665	3315.63525419047	525.80544649396
7	108116	3497.54677087698	1272.516119408
8	5551	87.12361490568	1.71213060073
8	7102	196.31228697625	1.71213134806
8	11472	314.94339189675	1.71213430496
8	13191	389.04182084544	1.71213094378
8	14055	403.52084310403	1.7121307181
8	16038	441.52805036028	1.7121304186
8	16783	463.00793248586	1.71213060073
8	16957	465.41977238711	1.71213056461
8	18438	569.63923330067	1.712130078
8	18638	574.98412365877	1.71213061683
8	21941	642.17278315319	1.71213060073
8	23079	722.7748705037	1.71212966261
8	26520	808.56247356716	1.7121307181
8	31110	977.50439496506	1.71213042861
8	33312	1024.04284276973	1.71213218214
8	33549	1027.83204072787	1.71213308489
8	33674	1033.15126674023	1.71213032681
8	47315	1517.57835250981	1.71213040522
8	49954	1583.44603938355	1.71213067438
8	52236	1679.1595299545	1.712130078
8	61480	1954.17620509853	1.71213032681
8	72590	2330.12015750833	1.7121302513
8	73689	2352.50443968767	1.71213310473
8	77507	2494.45156496874	1.71213001598
8	79200	2540.54936108938	1.71212966261
8	80451	2586.97643229743	1.7121312245
8	81284	2615.88247078529	1.71213317838
8	83424	2696.21202564548	1.71212969731
8	88311	2847.47768188474	1.7121307181
8	89541	2891.92314343475	1.71212966261
8	90151	2903.76687446098	3.83850627714
8	93700	3035.38613897652	1.7121307181
8	94431	3055.52464307045	1.71213001598
8	95117	3074.19509728922	1.71212969731
8	95729	3092.07415801497	1.71213056461
8	102050	3291.87083214935	1.71213033308
8	103055	3335.92611350285	1.71212974378
8	104169	3365.1561834764	1.71213271587
8	104275	3369.9110366289	1.71213042861
8	107577	3477.70825283488	1.71213040544
8	109392	3531.68828112631	1.71212966261
9	5551	87.12361490568	1.71213060073
9	7102	196.31228697625	1.71213134806
9	11472	314.94339189675	1.71213430496
9	13191	389.04182084544	1.71213094378
9	14055	403.52084310403	1.7121307181
9	16038	441.52805036028	1.7121304186
9	16783	463.00793248586	1.71213060073
9	16957	465.41977238711	1.71213056461
9	18438	569.63923330067	1.712130078
9	18638	574.98412365877	1.71213061683
9	21941	642.17278315319	1.71213060073
9	23079	722.7748705037	1.71212966261
9	26520	808.56247356716	1.7121307181
9	31110	977.50439496506	1.71213042861
9	33312	1024.04284276973	1.71213218214
9	33549	1027.83204072787	1.71213308489
9	33674	1033.15126674023	1.71213032681
9	47315	1517.57835250981	1.71213040522
9	49954	1583.44603938355	1.71213067438
9	52236	1679.1595299545	1.712130078
9	61480	1954.17620509853	1.71213032681
9	72590	2330.12015750833	1.7121302513
9	73689	2352.50443968767	1.71213310473
9	77507	2494.45156496874	1.71213001598
9	79200	2540.54936108938	1.71212966261
9	80451	2586.97643229743	1.7121312245
9	81284	2615.88247078529	1.71213317838
9	83424	2696.21202564548	1.71212969731
9	88311	2847.47768188474	1.7121307181
9	89541	2891.92314343475	1.71212966261
9	90151	2903.76687446098	3.83850627714
9	93700	3035.38613897652	1.7121307181
9	94431	3055.52464307045	1.71213001598
9	95117	3074.19509728922	1.71212969731
9	95729	3092.07415801497	1.71213056461
9	102050	3291.87083214935	1.71213033308
9	103055	3335.92611350285	1.71212974378
9	104169	3365.1561834764	1.71213271587
9	104275	3369.9110366289	1.71213042861
9	107577	3477.70825283488	1.71213040544
9	109392	3531.68828112631	1.71212966261
10	5562	94.74735723557	195.51669696289
10	10864	266.33174585813	168.35417865471
10	15884	439.81591994168	40.015112458322
10	20815	619.11725837688	637.35733736659
10	27864	829.04388842434	783.13765581919
10	34393	1079.75965973536	442.68884610254
10	40672	1267.94882806107	50.903121471676
10	46635	1499.58447678369	611.48102859419
10	52867	1702.12240754973	660.71155168663
10	58307	1880.77826794368	95.304420032693
10	64058	2053.98341946183	97.491012506549
10	69575	2228.74192663198	6.4644636395917
10	75427	2413.72972239579	244.73787256498
10	81027	2611.19955992864	73.267857091163
10	86898	2803.36995251788	1597.0870171007
10	93395	3030.09976074563	102.57871146543
10	99061	3204.58186599116	158.39340076225
10	104765	3391.61510029861	426.47075579648
10	110216	3573.53107031374	203.45468571917
11	5688	97.51532885128	202.67103430806
11	11481	336.68920776087	750.32009742886
11	17418	521.34949259562	533.17435802173
11	22766	714.88759804819	452.5362583798
11	28547	890.0806585528	402.48764436853
11	34667	1089.60383709155	269.34309234821
11	40330	1261.83655635009	983.69566306219
11	46154	1473.00701458038	1163.1046202901
11	51911	1671.76206117719	1907.19478843
11	59310	1902.96437388048	160.62607749304
11	64965	2087.63632887395	1381.4284191562
11	70457	2278.94196326221	56.19778506501
11	76057	2459.43498123458	465.77269180392
11	81667	2638.55119030378	719.31025418333
11	87032	2813.78473070451	119.92183147348
11	93233	3014.17292208031	268.58074997115
11	98679	3196.55267074656	1126.2050728285
11	104893	3393.61840485921	303.62217027213
11	110059	3571.7361505595	176.34769152653
12	5802	177.43234979509	84.690793403523
12	11699	369.41546539567	1102.5646498051
12	18273	567.92710322267	32.821721718109
12	24745	768.52551845419	779.05749577184
12	30104	941.56350617036	262.15152553223
12	35869	1129.249099924	1925.0632374911
12	40973	1301.40785560946	529.7105619206
12	46958	1504.13401978603	599.27074451031
12	52073	1677.4473998765	20.78667434873
12	57668	1853.44493000146	1072.1520679338
12	65231	2091.97386142794	1255.9647024047
12	70135	2265.49168975605	116.75882967909
12	76383	2468.21683824756	994.06838467348
12	83556	2697.06455362127	1360.6153922373
12	88985	2884.92984250778	320.37078245091
12	94456	3058.22588664364	561.16013790501
12	100167	3242.66159591097	273.15133898295
12	106418	3440.1485112434	880.85512604572
13	5855	178.85377367338	277.78578089112
13	12039	374.35685416636	545.10766368118
13	17527	546.89325035739	59.550017916865
13	22928	721.06274084109	38.810175234919
13	28656	897.6287201632	552.52767625169
13	34876	1093.04126282476	247.32124123976
13	41980	1341.32399953153	587.90772371111
13	47951	1537.06956787174	163.81989170345
13	53374	1712.893214199	236.68290901837
13	59081	1900.32386347427	1248.6268811477
13	65771	2102.27942287018	1406.8819491685
13	70899	2285.00669752416	177.91335954563
13	79049	2538.83723142677	33.233124565559
13	84332	2712.27988636328	1414.4163751517
13	89379	2890.21101377214	38.884353663567
13	96461	3113.44429177716	566.79285402911
13	103269	3342.86482035326	190.93293661911
13	109289	3529.9761514637	42.677939435408
14	6067	183.51604894744	335.3720997997
14	11986	374.15556124671	5.281078517227
14	17896	562.16906291109	260.01289888372
14	23570	747.77395316172	239.29509818932
14	29242	925.04087817704	1554.0127909053
14	35067	1102.05430661339	35.036112331239
14	42466	1352.21938309353	232.4053516476
14	50690	1618.35057595124	849.20707878706
14	56444	1795.76853877255	1070.2197834638
14	62133	1980.87011672709	155.30059953199
14	67952	2163.29000609984	332.48897805185
14	73256	2341.96796305631	501.14623565103
14	78182	2517.25812918292	382.52719803303
14	82891	2691.44807272014	322.21002878727
14	89091	2885.93358262472	77.548999569137
14	94806	3072.24912414515	308.85277366319
14	101480	3283.74527962597	1535.5910975261
14	107127	3458.9913975056	311.22224248603
15	6175	186.96810081347	886.53516649444
15	11752	370.81331712834	56.615566757931
15	17658	555.98594076185	126.38054161122
15	25217	776.5665539738	1173.7106782624
15	31328	980.55186528857	90.394302332773
15	36914	1161.93253936604	247.11656881141
15	45433	1424.79822210593	344.45379907989
15	50925	1630.46242856776	187.7442335266
15	56925	1806.12340669092	252.80291259051
15	63022	2021.80128948589	754.893624437
15	68394	2194.48121938953	724.72145623501
15	73703	2366.56345642279	177.49658065219
15	79391	2543.83570133847	73.577967940953
15	84516	2715.61957440887	190.13647663854
15	90954	2927.63934231994	139.88757887836
15	96119	3105.58530435793	602.44282910076
15	101828	3290.15870181627	5.4368674935318
15	107345	3469.86361268141	502.00045170364
16	6229	188.20128441644	340.76607227814
16	12846	385.5168228262	580.78788045449
16	19634	589.72798117658	620.02296572311
16	25091	771.56245601704	195.72242717442
16	33076	1019.18720865599	736.62442386957
16	40090	1241.25022222546	187.84010849256
16	46531	1497.05012192571	199.04771913782
16	52262	1688.48122200279	960.75017443538
16	58913	1893.36121321004	287.0504394448
16	64559	2066.06761797135	1997.0287379545
16	69977	2261.81063576196	135.43999455434
16	75953	2456.98920640436	1048.6203152053
16	82122	2661.44774871343	42.318048915299
16	87704	2834.53418712132	1127.5787544658
16	93707	3035.99930385027	504.72874909226
16	99684	3232.51443830753	1603.7764026096
16	106791	3447.47484742924	73.846457369493
17	6354	188.74782849446	313.33041237025
17	13203	391.17912106605	14.491817264393
17	18326	568.38832439322	360.66984373895
17	24056	759.68011066414	456.93219987148
17	33187	1022.33071058759	23.162761928032
17	39292	1211.7487025419	1141.523899578
17	43595	1383.43951090066	1658.3335265022
17	49011	1565.33343025387	104.38116800612
17	54347	1741.76084827039	158.30465136056
17	61194	1946.29885463004	381.04893200781
17	66666	2121.80394741677	939.68251679856
17	71748	2300.13316178647	493.14291736884
17	77127	2487.28349390159	586.77720576887
17	82016	2660.37145483563	67.366551430185
17	87600	2832.3658190046	424.1398164353
17	93012	3005.37001803262	949.401560068
17	99240	3207.45112658286	776.30747673014
17	104550	3380.92614581681	600.49043710542
17	110654	3582.90247092326	465.29769018406
18	6517	190.93696570672	1871.6351483381
18	13011	387.32968990166	43.493955893201
18	17949	562.17392960841	60.616278783191
18	26041	795.23739088897	492.14832013757
18	33690	1034.42935212157	729.88144222588
18	39682	1223.71406182165	46.796378487213
18	45102	1414.8528385493	1031.6541661297
18	51061	1640.85294917979	117.79087425088
18	57183	1819.97668686027	1065.2642904079
18	62598	1996.71180151142	627.74626080852
18	69224	2218.79020934065	624.36947482697
18	75290	2400.14226331069	1737.0052741895
18	80104	2571.75304171281	2348.8489357909
18	85549	2747.12165769504	887.16037459793
18	90826	2923.8428348204	249.85326613649
18	97883	3158.92058911539	359.68940915608
18	103880	3354.93144871523	900.01765348786
19	6570	191.05819349762	458.26072881682
19	13261	392.13794455563	1003.181911594
19	20357	600.21905913745	725.65355002118
19	25863	792.58892398703	1081.316395118
19	31517	983.67847980745	755.89405018665
19	39737	1225.30620953823	428.72964562073
19	45673	1441.4994264237	1045.1223397978
19	52628	1698.4131575263	493.60993354637
19	58668	1887.13486437161	588.05216369959
19	64426	2062.74092718802	1079.9540728306
19	70562	2282.51731255656	419.54199435267
19	76734	2482.03798432989	56.860648880906
19	82474	2671.46252894427	305.86952418514
19	88476	2860.64213549873	1510.0872887073
19	95929	3097.75874939227	243.98961980983
19	101587	3285.42713439136	1060.4602398313
19	107606	3482.92780870038	560.43243229908
20	6623	191.06183729279	207.36292371477
20	12506	382.07679123673	139.14451497174
20	21548	637.67710706384	379.80090613966
20	26523	809.06432604959	835.42929245775
20	31782	990.81119143529	161.55639802653
20	38004	1185.74891647009	347.92243862907
20	43753	1386.32150931535	534.44269226884
20	49259	1571.64706037164	721.79796924957
20	55873	1772.56228821193	19.611849140816
20	61498	1956.84133165282	320.18842952789
20	66884	2130.26993744254	522.66050871878
20	72747	2333.5597713672	123.98923081721
20	77995	2513.35750362671	267.17671271611
20	83800	2699.34128176003	720.88669259183
20	89038	2885.90733240045	183.9476964338
20	94584	3060.76459951596	102.57409414858
20	100052	3239.63466321339	156.62920555328
20	106181	3436.1432442262	2830.5140427305
21	6857	193.4048973993	199.45622598437
21	13314	392.54430107272	2739.9170910049
21	18802	577.20879436412	461.61508965648
21	24161	762.4900883084	1251.4470684121
21	29750	934.11310683596	94.135845258379
[...]
27	88053	2842.40484461446	245.05067470353
27	93816	3037.18210396793	489.47693769552
27	100349	3245.17697530639	661.81284016337
27	106959	3452.96025324774	521.15985898124
28	7566	203.11152342427	2035.9301802929
28	12612	382.51371920227	1095.3423759597
28	19871	592.05418937867	244.0470526473
28	24557	766.49383969967	58.526615336526
28	30000	940.51423360979	785.66663494017
28	35765	1127.54473228804	357.20800973968
28	41814	1338.33747582895	714.04900314948
28	48206	1542.45323795253	403.31286552384
28	56497	1797.31389800328	797.25925219321
28	62838	2014.8215874572	573.63115546939
28	70615	2282.60983677393	234.87433527616
28	77298	2492.73943495276	29.654917018768
28	82732	2689.48176611179	659.81078962185
28	88848	2872.32894867597	463.36136876717
28	94328	3053.81251305447	8.0010485155687
28	100223	3244.25859835666	1627.3165277381
28	105920	3428.38611936432	903.54697520655
29	7727	204.6329312499	1104.4045767416
29	14761	418.54157135951	269.16232407515
29	23731	750.41730116216	500.06211065026
29	29350	927.92414119124	564.53698151914
29	35014	1100.68463702131	888.1355343844
29	41531	1332.7404536508	312.85722212011
29	47754	1528.58402403517	137.70490248852
29	53004	1706.60876305798	278.55884740757
29	58537	1884.82494167223	143.4420138825
29	64242	2058.44989561034	190.48773946755
29	69846	2238.6506686128	239.40152913638
29	75556	2418.86460824857	445.30047116358
29	81402	2627.21886954712	952.62871452352
29	86770	2798.96404654048	532.8813158633
29	92398	2979.64277424065	696.61861158553
29	98416	3174.37310275014	487.67071496547
29	103643	3350.48064073332	293.68600037424
29	110112	3573.19467586631	22.075447315611
30	7834	205.01905834565	168.97560393797
30	12380	376.9553678078	1216.8521539023
30	18642	575.33733088999	541.93044264157
30	23913	753.11316291928	1850.9445472151
30	29404	929.52207069919	380.24295323089
30	35547	1120.06786491035	149.92794510596
30	42413	1351.10609272191	1672.3270360936
30	47699	1528.20181607847	1116.1242261906
30	54014	1732.71587702213	486.40323434688
30	59663	1907.80424369366	81.205158181256
30	64910	2086.6115363615	32.155500313445
30	71628	2295.10949078969	276.75512344631
30	77588	2497.32593472297	1.1046582222521
30	84224	2709.02040075246	2082.764364659
30	89323	2889.1932949418	385.51500943223
30	94699	3066.54691884839	224.5920742039
30	100628	3251.54781439391	265.2372822169
30	105812	3424.77342828069	856.99262644875
31	7887	205.29076075826	254.35556012705
31	15074	420.98048557421	644.12238256271
31	22256	651.95516677726	160.74722217262
31	28061	832.42754716879	1760.6385372956
31	34046	1048.61391820375	157.7161360926
31	39978	1230.49023126738	542.40686647842
31	45288	1417.612598073	152.54542464146
31	50310	1598.18042897372	707.26333085733
31	55979	1774.35719527182	198.90737839459
31	61741	1969.71352110569	217.45533028296
31	68005	2163.60720770236	245.01850504042
31	74105	2380.49323118478	1667.7899659565
31	79674	2555.75904879526	240.13547992998
31	85428	2737.65927720623	488.34526954624
31	90586	2913.78634957305	316.57590034085
31	96408	3113.24630094234	997.17614155415
31	101533	3284.58146211366	833.34490432591
31	108244	3501.27548700541	187.24494153824
32	8129	207.4445919963	195.92709696938
32	12559	382.15086462929	541.81258650691
32	20064	593.98336338882	1762.4832295407
32	27004	821.69803634917	471.05082418108
32	33373	1026.11990764298	27.224667753732
32	38697	1199.12899111605	504.93750552476
32	45564	1431.64109576228	834.23578036755
32	51427	1653.71087226007	585.15532585475
32	57553	1846.42337092634	857.89975477247
32	62969	2021.34935673077	420.53360005076
32	68980	2209.06996252862	35.922289549452
32	75126	2396.02789140402	774.92246436321
32	80220	2578.85019664237	35.58407670592
32	87431	2824.18087982175	304.48165916527
32	93342	3029.8153161744	1014.5548040957
32	99460	3212.68892786451	335.26835892675
32	104659	3386.98515069189	2451.7509059264
32	110269	3574.07574244949	624.75752052474
33	8183	207.68644996519	1308.6238312367
33	14118	407.71280452717	785.35433487097
33	21421	635.06179140682	301.98621482122
33	27165	824.09365948388	126.21009859512
33	32860	1014.19278201602	766.79520580296
33	38923	1205.19220107886	481.23939825998
33	46040	1461.00779684674	220.06375554289
33	51114	1641.51155296586	58.727813600539
33	57056	1815.93152929642	112.48417529743
33	63340	2031.57610702778	264.0177931446
33	68685	2203.67944835569	132.96790374932
33	75073	2395.80088796237	461.36578168106
33	81534	2631.93502795679	371.63744055018
33	87868	2838.95097328908	1489.1238030675
33	94183	3041.39284146693	150.51797282731
33	100510	3247.20251589247	557.60064250194
33	106609	3444.93549441947	313.85122258571
34	8300	209.18794916764	125.30726645653
34	13548	394.93426406342	1171.8651399272
34	18855	577.48147260922	841.68593420234
34	24500	765.9429423572	569.21726199866
34	29945	939.07090987729	878.21575228966
34	37255	1171.9716586702	436.72300109045
34	43371	1371.14922100937	466.57565874452
34	48316	1543.197522263	134.75390730434
34	53615	1723.85911798068	681.66815096241
34	59828	1910.05591728655	165.6258529739
34	65609	2100.07973670958	779.63045129858
34	71139	2287.71847703614	156.79036859989
34	76168	2463.89861219849	243.60749516701
34	81776	2647.21789578461	580.39406492863
34	87192	2819.25269414894	735.33561057813
34	92906	3003.99470334255	518.41912429926
34	98787	3197.31709277881	344.27266079153
34	105106	3395.42126590448	140.55058663397
35	8407	209.41444650863	206.75284158045
35	13603	395.61933037542	162.04265742279
35	19528	589.08538566864	70.833753941984
35	25270	776.71887632632	2493.4381543411
35	30835	974.14001682725	434.1551188887
35	36302	1146.34404759708	242.41442268931
35	42758	1358.33008254876	1068.4596781244
35	48076	1539.90117246425	292.62512575067
35	53801	1728.08413105323	235.29245633438
35	59365	1903.34040355088	193.69344856869
35	66034	2105.30337901163	199.07060719608
35	72117	2315.61151562989	940.14819044687
35	78235	2517.67364222077	89.063631505912
35	83105	2693.6811452504	675.68076707339
35	88613	2867.44390739732	626.69102217792
35	97163	3138.22899504487	577.30752862892
35	103453	3346.32030120048	319.9569776426
35	109557	3548.19664678671	399.93793322147
36	8596	211.41393313836	232.83124568071
36	15386	432.16260609969	104.51527217695
36	20592	607.70154329016	48.522549805447
36	27376	824.847323422	15.95430567336
36	32754	1009.96491428163	252.42242342825
36	38060	1187.17562866911	0.49784480866378
36	42885	1360.17757831798	279.37249274796
36	49145	1567.96539019452	343.12073807566
36	55222	1760.72201171385	391.80208440836
36	60539	1935.90202660568	59.960289069807
36	66232	2111.23400961331	221.9985524024
36	72859	2337.11244524274	313.71470475841
36	78882	2530.61402865208	99.428089841222
36	84104	2703.58744911212	128.01288326864
36	91564	2941.63083024546	237.70006878458
36	96643	3117.07382456067	33.497594536261
36	101936	3290.44503578305	255.84881778306
36	107232	3462.34261905965	2979.9709663406
37	8722	218.87419897696	666.64629699769
37	16839	463.7076418225	2.885866897772
37	25455	781.57667690336	310.1037272996
37	30274	954.28399125545	956.50412739112
37	36171	1139.49566246759	332.1284349164
37	41269	1310.75365341437	651.71165479763
37	49493	1575.3043602115	261.17244940268
37	55169	1760.66082115899	301.91700287454
37	61794	1971.09961712575	77.371832623487
37	67367	2154.06819005014	204.35394288295
37	72968	2339.14451408674	196.81762260178
37	77941	2512.05256311501	1675.6894481159
37	83747	2699.24532703234	704.64569215785
37	90094	2902.64274563013	1438.2586847727
37	95611	3090.36202745036	36.605840483958
37	101349	3279.94678493496	95.844912622936
37	106906	3452.21430219654	241.0878444436
38	8775	220.41698228522	2144.1990208977
38	13787	397.76001284313	141.33824336757
38	18512	573.27199304194	1.5569915781329
38	23443	744.51254839681	398.40557359933
38	29693	933.21688289368	505.00224880448
38	37863	1180.63905294678	147.47457880996
38	44122	1388.94568376056	960.87893085599
38	50142	1593.24460910742	129.07439636671
38	56204	1783.69592535693	498.49745860938
38	61607	1960.9744204077	298.05788184399
38	67899	2162.84845343626	420.12339725913
38	73201	2341.41063925941	999.85177694137
38	78996	2538.41034614093	2026.225863476
38	85059	2726.54001257969	191.06976866363
38	90690	2915.63168739913	861.71307026609
38	95875	3097.39351996309	83.28489727297
38	101242	3275.22118089669	42.250826296649
38	108899	3515.9064989858	495.83294098378
39	8899	220.94380083867	369.99444195656
39	13931	401.80871238593	9.2148790686107
39	19247	587.05407599512	116.43818327214
39	26399	806.85034284906	37.532089411825
39	32610	1001.99704437122	1303.19740138
39	37552	1176.85045470212	120.40270142035
39	42624	1355.33951901014	463.28933908382
39	49985	1591.2236203727	1090.8500862911
39	55382	1762.72915514894	192.407150922
39	60644	1939.25257296197	582.22230757858
39	66499	2116.29706676377	112.68888996049
39	71445	2292.71598935904	962.65005307552
39	76889	2484.02466622671	25.850618558159
39	82329	2663.63557244143	649.82669684727
39	88188	2845.76555116664	0.12353972216513
39	93575	3033.67400825842	27.951351389125
39	99577	3227.33563134389	137.98730733671
39	105335	3403.36620082596	850.84044219192
40	9064	224.58747974476	316.92993710154
40	14062	406.42873892657	78.595961825355
40	18961	578.45491884938	53.759638910329
40	24267	763.35303715924	751.91577733688
40	31140	978.25113214759	886.03688995457
40	36588	1150.5733219747	69.911458991232
40	41871	1339.73119651755	761.79910363522
40	47524	1526.47439590438	1022.6949754458
40	55742	1768.89812345263	462.47505585522
40	61007	1944.19253276456	175.68052689326
40	67180	2144.26948919354	1638.5393320054
40	72619	2331.76657237899	532.28681560319
40	78534	2523.88854773246	641.68404643795
40	84924	2721.5141250221	816.9006216959
40	89830	2897.36036427079	374.76943468693
40	95395	3084.99718791848	100.4237475043
40	101883	3290.37351340606	191.63448297336
40	107476	3475.99612242944	3.8572660478543
41	9118	224.693804871	257.99578162499
41	14865	418.97681732555	41.002203651569
41	20117	594.23134872637	893.99122451885
41	25563	782.31582030565	692.19792799452
41	30327	954.32733642149	554.98242008017
41	35976	1130.68532122174	329.67187292598
41	41684	1335.41765286336	1174.7246994666
41	47209	1515.86622210459	4.1745542390219
41	52315	1690.08489275457	1143.8520661563
41	58360	1882.44040013329	1040.7116956306
41	64189	2058.35450342901	193.58772857871
41	69630	2229.80349219955	624.48045658064
41	75688	2423.88450246965	332.5932184369
41	80806	2603.05917139125	624.78270413438
41	86549	2784.01772456737	726.79943134368
41	92022	2956.07063246459	108.31415419794
41	96919	3131.5476681704	364.48283691334
41	104359	3371.62449767871	302.32127342668
41	109925	3561.56546672428	308.77677593198
42	9173	225.90392762559	1308.5358722004
42	15624	437.54396089146	157.15185553043
42	20974	623.7612254315	75.800318210258
42	26262	799.83807164932	648.53643577483
42	31655	988.10704364762	188.89400966541
42	38517	1196.5053023192	566.0899663668
42	44947	1413.57582817822	1316.5048890041
42	51483	1655.20856378214	408.09097012858
42	57296	1840.54563355381	224.55194247242
42	63689	2043.25006103896	276.25237069482
42	70262	2267.07653249659	294.59930137937
42	76437	2468.67396820333	215.07359048289
42	83265	2694.83893746262	158.80530845361
42	91264	2933.13492669715	207.65880682405
42	97442	3140.27006310045	430.91563051836
42	102905	3334.21398375907	9.1033633635127
42	108409	3512.86660592537	35.88976706949
43	9419	230.77018104514	1407.7714287423
43	14650	417.11569755469	1086.0822025721
43	19475	589.03734749081	260.77237087005
43	24856	769.41974663014	186.91092555323
43	30536	958.70301344728	79.600133691822
43	37098	1168.69290226248	863.13584014211
43	43070	1362.48639917195	364.8706458872
43	48673	1557.74417001194	431.07917043856
43	54690	1750.07982108021	90.362044747019
43	62651	1996.96637676074	1305.2331392245
43	68811	2204.3304668149	1500.1899505137
43	74052	2380.01099882568	867.9703020171
43	79892	2566.33801822449	5.6278257075524
43	85876	2766.62791292182	768.61199576746
43	92076	2956.64110354768	791.44092114422
43	97497	3141.21021071572	9.1971956300308
43	102796	3326.52260969449	57.207548796178
43	109055	3523.33852712086	598.84494263363
44	9472	230.99349756643	129.70114211661
44	14706	418.39645833657	905.46655932583
44	19933	593.14237306707	672.6454890062
44	25508	782.23456436478	160.98962564009
44	33317	1025.09815181496	169.52210032151
44	38754	1200.38526264844	2094.1784542232
44	43700	1386.15917881976	538.89529977492
44	49677	1577.48032093274	1516.7739139969
44	54818	1752.46989241273	87.910547394731
44	60698	1940.28142793221	67.269918352461
44	66996	2138.0895284666	56.560460795483
44	73435	2349.80345390545	15.668717094561
44	79780	2559.879858187	12.685341180348
44	85655	2751.54293983411	380.49583494823
44	91082	2930.27349613683	1190.6909419566
44	97699	3147.95344856246	208.69494280213
44	103398	3345.63214933665	154.0803514922
44	109161	3527.6027425379	722.57154466229
45	9656	235.61642806591	134.34637406833
45	15570	436.43844554021	23.541101156794
45	21292	632.00241628374	749.77655963748
45	26876	819.19643454483	493.31297584413
45	31838	992.08481591618	1370.528006681
45	38464	1196.33301820004	45.217705826695
45	45804	1450.86354987378	122.59007408868
45	50799	1627.51308674414	1469.3532129339
45	56726	1799.04001238619	224.86462369193
45	63197	2023.96460114087	571.24019982172
45	68630	2202.01648889805	573.44974903103
45	74262	2381.91753288454	254.27477796031
45	80753	2601.97612832227	494.06760047682
45	86253	2775.64045073025	1258.721733354
45	91783	2951.13460480623	166.02947080259
45	98179	3168.51630164094	329.71582925245
45	104019	3363.44405076053	0.95298293670199
45	109426	3539.36523658477	183.5788698968
46	9710	235.91710079289	176.9637420532
46	16468	456.08646677429	510.6972330533
46	21158	628.08985789891	1736.029040445
46	26636	813.13251393161	493.17226874538
46	32122	994.27926288028	69.827519985115
46	37390	1175.14719111885	79.916957898018
46	43806	1386.48947174003	284.61967867884
46	49314	1573.24530593243	783.48875012966
46	54563	1748.09316456027	554.00232130568
46	60351	1926.0314207183	2128.7437893708
46	65663	2100.79695362228	24.464603338053
46	70956	2285.76749297442	167.05084351224
46	76944	2484.23747833681	345.66561895121
46	82605	2686.08852359183	483.32410945589
46	88323	2857.94679536303	973.27898670952
46	96272	3108.31406057217	817.40108345983
46	102958	3334.2598345082	386.79669510745
46	108356	3511.35106453369	631.70487704117
47	9955	243.39723931648	2039.675228473
47	16341	453.95192301401	98.353434214707
47	22119	646.35815117347	68.84467593061
47	27323	824.43794585634	1748.7020886261
47	34151	1051.77160732007	198.03826214336
47	39629	1223.59562589224	138.64253110872
47	44413	1395.38854755813	784.42950912213
47	52500	1695.61127701619	1517.3504445097
47	58176	1874.30129435372	932.50003411947
47	64781	2081.6028115256	159.99367121485
47	71257	2290.20573443891	1245.4391597855
47	77705	2504.53694124049	524.34795907914
47	82999	2692.89982177124	1725.615147114
47	90284	2906.24361123148	398.45977803984
47	97830	3157.81126264527	1799.0983763347
47	104304	3370.62522590152	1454.7559333679
48	10239	246.45572652648	613.83601450281
48	16214	450.70712014656	123.10940802192
48	22367	667.77134995507	853.9391910842
48	28307	855.92405019576	610.27112978536
48	34614	1088.27220358712	319.32164944911
48	40487	1264.50438786889	408.23900524134
48	46261	1478.50929532708	663.04089045678
48	51301	1650.23672941454	719.25899284221
48	57423	1844.06117391864	2507.4785827209
48	63871	2048.63684506945	1111.5897040692
48	70082	2264.81993078965	588.46331211715
48	77245	2492.3385121629	1863.3610134867
48	83160	2694.49989594817	37.214234385799
48	89962	2899.92836818384	2.8374993201057
48	94914	3072.48296759191	17.107546074177
48	102171	3293.19381253144	745.59524003192
48	108513	3513.33001736514	1167.9281694157
49	10373	249.05905281815	3356.5774344885
49	15333	430.61294406288	430.22204563822
49	21769	641.44322189362	569.0565690443
49	26690	814.60215934953	263.17886508995
49	33562	1031.43913641342	42.862727038448
49	39032	1208.93464170274	530.69830113862
49	44068	1388.29654598489	1186.3617709853
49	50038	1592.00316943663	1275.7078816689
49	55600	1765.46624411018	93.514202936116
49	61370	1952.46407477172	6.6353913907738
49	66775	2126.3954956857	816.90722039992
49	71990	2312.61960767449	91.929512671217
49	77353	2493.24361616504	27.237551186015
49	82787	2690.95135262807	569.94836326265
49	90338	2907.02868192376	1850.0309457254
49	95267	3081.25585032497	625.12451259071
49	101055	3266.43506732379	205.65521553613
49	106554	3443.43966554107	66.650844513429
50	10693	260.01850609909	25.815844729032
50	17253	503.57985433187	97.735080155291
50	22607	704.204573105	360.04844482334
50	28709	898.92629886523	253.63060953031
50	34446	1080.3116392446	88.703078272822
50	40199	1253.58103123779	76.39968529644
50	46422	1486.02305469889	373.61116943399
50	51782	1666.47012108753	1866.2352034009
50	57721	1854.36662757885	478.75741515465
50	63446	2033.07254978124	272.63397219162
50	69092	2214.01206800443	151.52639816511
50	74695	2386.52631015648	405.02961291632
50	80329	2585.26430107293	18.305408881862
50	86087	2771.35670395694	40.605648214119
50	92267	2973.42678644419	150.06853034492
50	99008	3203.57602527593	661.97236372236
50	105001	3395.21059330667	543.51909432613
50	110600	3581.51562154323	145.09433015611
51	10988	268.26439785886	244.19839788629
51	16970	466.37243797787	257.02986889921
51	23278	735.10845747497	140.45119338621
51	29133	920.42283574005	71.020981004021
51	35120	1102.05647304283	60.275593387386
51	40811	1281.5385357502	690.28560618905
51	45935	1457.86963407823	814.14431286228
51	54125	1734.25633897782	762.14603341261
51	60162	1919.89285899751	300.09645622424
51	66285	2111.49644028485	1033.1939097433
51	74315	2382.1571191201	1051.3409559405
51	81296	2622.8054845317	625.83445876567
51	87377	2823.61273536475	84.709994309953
51	95141	3074.86949903746	855.90533422573
51	100868	3258.4213261912	282.89739338415
51	106053	3433.22709563344	131.49524630693
52	11205	272.66626921658	1739.8800197621
52	17091	484.35195717601	150.09847572272
52	22498	676.67663095581	513.39215194261
52	28438	864.88260346619	868.00200540842
52	33802	1038.15066744489	404.80634467607
52	39406	1215.09775257138	1444.3259255918
52	44841	1412.59499163297	469.47962034515
52	51589	1656.09972648058	1730.8270636064
52	57873	1855.40658054492	81.370931229521
52	63393	2031.64614053441	1297.0606710476
52	69351	2220.74377766514	482.92994705413
52	74963	2392.82122811752	1727.590919113
52	79997	2569.84241912629	2399.0417912367
52	85709	2752.0079426346	3.1769910640247
52	91209	2932.25481007512	35.02930169482
52	96865	3130.41431901305	1.4903477508982
52	102447	3303.06740896273	317.09506392166
52	108619	3513.97739994841	1562.0772156808
53	11322	313.23125759179	21.157534493102
53	17200	503.42000337108	17.243981460068
53	23106	724.18844118879	1011.9399906738
53	28833	899.84866042266	202.43395214698
53	34287	1076.00260671968	54.946759070007
53	40434	1264.12950888618	216.30390487296
53	46847	1502.60836645099	105.59508888131
53	53748	1727.74894287565	555.11483594308
53	60054	1916.64591729028	73.079371795032
53	65474	2096.43946220972	301.4175057082
53	71392	2292.65316832118	93.51337147633
53	76629	2478.50434139658	158.61277681812
53	83503	2696.87488475711	586.72449793558
53	88666	2868.5544469851	3406.0647364018
53	97110	3137.57128171777	119.83202048164
53	103774	3353.1957470123	152.54034509116
53	109817	3557.0735441238	584.68854410555
54	11590	342.93311224433	411.12724588016
54	18697	576.58799781035	125.0413487041
54	23625	749.35158738981	149.39176160801
54	30651	964.72294920676	261.66378754406
54	36776	1153.65179518292	551.88705019805
54	42164	1344.21004100844	1732.6556130021
54	47333	1517.71882498645	290.24469394004
54	53237	1709.50571000824	256.8329692317
54	59028	1899.82822429458	53.643065951601
54	65070	2089.2598471932	252.68769092395
54	72253	2323.3543246986	891.17407665083
54	77834	2509.87011426302	1760.5489870152
54	84622	2716.35654041329	667.79076228017
54	89565	2892.66699331035	651.05325556396
54	94859	3072.2527129469	1280.7510591342
54	100736	3254.38329892757	94.928158906576
54	107735	3487.03002119358	138.20036509828

