version 3
run N75-9-20260518-02:27:05-159888
attr configname N75
attr datetime 20260518-02:27:05
attr datetimef 20260518-022705
attr experiment N75
attr inifile omnetpp.ini
attr iterationvars "$0=\"avg\""
attr iterationvarsd avg
attr iterationvarsf avg-
attr measurement "$0=\"avg\""
attr network test2.LoRaNetworkTest
attr processid 159888
attr repetition 9
attr replication #9
attr resultdir results
attr runnumber 9
attr seedset 9
config extends General
config **.numPatients 75
config network test2.LoRaNetworkTest
config sim-time-limit 1h
config warmup-period 60s
config simtime-resolution -11
config repeat 30
config rng-class cMersenneTwister
config record-eventlog false
config **.numPatients 20
config **.HospitalServer.app[0].queueLength:vector.vector-recording true
config **.HospitalServer.app[0].urgentWaitTime:vector.vector-recording true
config **.HospitalServer.app[0].normalWaitTime:vector.vector-recording true
config **.HospitalServer.app[0].urgentEndToEndDelay:vector.vector-recording true
config **.HospitalServer.app[0].normalEndToEndDelay:vector.vector-recording true
config **.loRaNodes[*].app[0].emergencyVariate:vector.vector-recording true
config **.vector-recording false
config **.loRaNodes[0].**.initialX "300m + uniform(-10m, 10m)"
config **.loRaNodes[0].**.initialY "250m + uniform(-8m, 8m)"
config **.loRaNodes[1].**.initialX "450m + uniform(-10m, 10m)"
config **.loRaNodes[1].**.initialY "250m + uniform(-8m, 8m)"
config **.loRaNodes[2].**.initialX "600m + uniform(-10m, 10m)"
config **.loRaNodes[2].**.initialY "250m + uniform(-8m, 8m)"
config **.loRaNodes[3].**.initialX "750m + uniform(-10m, 10m)"
config **.loRaNodes[3].**.initialY "250m + uniform(-8m, 8m)"
config **.loRaNodes[4].**.initialX "900m + uniform(-10m, 10m)"
config **.loRaNodes[4].**.initialY "250m + uniform(-8m, 8m)"
config **.loRaNodes[5].**.initialX "1050m + uniform(-10m, 10m)"
config **.loRaNodes[5].**.initialY "250m + uniform(-8m, 8m)"
config **.loRaNodes[6].**.initialX "1200m + uniform(-10m, 10m)"
config **.loRaNodes[6].**.initialY "250m + uniform(-8m, 8m)"
config **.loRaNodes[7].**.initialX "1350m + uniform(-10m, 10m)"
config **.loRaNodes[7].**.initialY "250m + uniform(-8m, 8m)"
config **.loRaNodes[8].**.initialX "1500m + uniform(-10m, 10m)"
config **.loRaNodes[8].**.initialY "250m + uniform(-8m, 8m)"
config **.loRaNodes[9].**.initialX "1650m + uniform(-10m, 10m)"
config **.loRaNodes[9].**.initialY "250m + uniform(-8m, 8m)"
config **.loRaNodes[10].**.initialX "300m + uniform(-10m, 10m)"
config **.loRaNodes[10].**.initialY "370m + uniform(-8m, 8m)"
config **.loRaNodes[11].**.initialX "450m + uniform(-10m, 10m)"
config **.loRaNodes[11].**.initialY "370m + uniform(-8m, 8m)"
config **.loRaNodes[12].**.initialX "600m + uniform(-10m, 10m)"
config **.loRaNodes[12].**.initialY "370m + uniform(-8m, 8m)"
config **.loRaNodes[13].**.initialX "750m + uniform(-10m, 10m)"
config **.loRaNodes[13].**.initialY "370m + uniform(-8m, 8m)"
config **.loRaNodes[14].**.initialX "900m + uniform(-10m, 10m)"
config **.loRaNodes[14].**.initialY "370m + uniform(-8m, 8m)"
config **.loRaNodes[15].**.initialX "1050m + uniform(-10m, 10m)"
config **.loRaNodes[15].**.initialY "370m + uniform(-8m, 8m)"
config **.loRaNodes[16].**.initialX "1200m + uniform(-10m, 10m)"
config **.loRaNodes[16].**.initialY "370m + uniform(-8m, 8m)"
config **.loRaNodes[17].**.initialX "1350m + uniform(-10m, 10m)"
config **.loRaNodes[17].**.initialY "370m + uniform(-8m, 8m)"
config **.loRaNodes[18].**.initialX "1500m + uniform(-10m, 10m)"
config **.loRaNodes[18].**.initialY "370m + uniform(-8m, 8m)"
config **.loRaNodes[19].**.initialX "1650m + uniform(-10m, 10m)"
config **.loRaNodes[19].**.initialY "370m + uniform(-8m, 8m)"
config **.loRaNodes[20].**.initialX "300m + uniform(-10m, 10m)"
config **.loRaNodes[20].**.initialY "490m + uniform(-8m, 8m)"
config **.loRaNodes[21].**.initialX "450m + uniform(-10m, 10m)"
config **.loRaNodes[21].**.initialY "490m + uniform(-8m, 8m)"
config **.loRaNodes[22].**.initialX "600m + uniform(-10m, 10m)"
config **.loRaNodes[22].**.initialY "490m + uniform(-8m, 8m)"
config **.loRaNodes[23].**.initialX "750m + uniform(-10m, 10m)"
config **.loRaNodes[23].**.initialY "490m + uniform(-8m, 8m)"
config **.loRaNodes[24].**.initialX "900m + uniform(-10m, 10m)"
config **.loRaNodes[24].**.initialY "490m + uniform(-8m, 8m)"
config **.loRaNodes[25].**.initialX "1050m + uniform(-10m, 10m)"
config **.loRaNodes[25].**.initialY "490m + uniform(-8m, 8m)"
config **.loRaNodes[26].**.initialX "1200m + uniform(-10m, 10m)"
config **.loRaNodes[26].**.initialY "490m + uniform(-8m, 8m)"
config **.loRaNodes[27].**.initialX "1350m + uniform(-10m, 10m)"
config **.loRaNodes[27].**.initialY "490m + uniform(-8m, 8m)"
config **.loRaNodes[28].**.initialX "1500m + uniform(-10m, 10m)"
config **.loRaNodes[28].**.initialY "490m + uniform(-8m, 8m)"
config **.loRaNodes[29].**.initialX "1650m + uniform(-10m, 10m)"
config **.loRaNodes[29].**.initialY "490m + uniform(-8m, 8m)"
config **.loRaNodes[30].**.initialX "300m + uniform(-10m, 10m)"
config **.loRaNodes[30].**.initialY "610m + uniform(-8m, 8m)"
config **.loRaNodes[31].**.initialX "450m + uniform(-10m, 10m)"
config **.loRaNodes[31].**.initialY "610m + uniform(-8m, 8m)"
config **.loRaNodes[32].**.initialX "600m + uniform(-10m, 10m)"
config **.loRaNodes[32].**.initialY "610m + uniform(-8m, 8m)"
config **.loRaNodes[33].**.initialX "750m + uniform(-10m, 10m)"
config **.loRaNodes[33].**.initialY "610m + uniform(-8m, 8m)"
config **.loRaNodes[34].**.initialX "900m + uniform(-10m, 10m)"
config **.loRaNodes[34].**.initialY "610m + uniform(-8m, 8m)"
config **.loRaNodes[35].**.initialX "1050m + uniform(-10m, 10m)"
config **.loRaNodes[35].**.initialY "610m + uniform(-8m, 8m)"
config **.loRaNodes[36].**.initialX "1200m + uniform(-10m, 10m)"
config **.loRaNodes[36].**.initialY "610m + uniform(-8m, 8m)"
config **.loRaNodes[37].**.initialX "1350m + uniform(-10m, 10m)"
config **.loRaNodes[37].**.initialY "610m + uniform(-8m, 8m)"
config **.loRaNodes[38].**.initialX "1500m + uniform(-10m, 10m)"
config **.loRaNodes[38].**.initialY "610m + uniform(-8m, 8m)"
config **.loRaNodes[39].**.initialX "1650m + uniform(-10m, 10m)"
config **.loRaNodes[39].**.initialY "610m + uniform(-8m, 8m)"
config **.loRaNodes[40].**.initialX "300m + uniform(-10m, 10m)"
config **.loRaNodes[40].**.initialY "730m + uniform(-8m, 8m)"
config **.loRaNodes[41].**.initialX "450m + uniform(-10m, 10m)"
config **.loRaNodes[41].**.initialY "730m + uniform(-8m, 8m)"
config **.loRaNodes[42].**.initialX "600m + uniform(-10m, 10m)"
config **.loRaNodes[42].**.initialY "730m + uniform(-8m, 8m)"
config **.loRaNodes[43].**.initialX "750m + uniform(-10m, 10m)"
config **.loRaNodes[43].**.initialY "730m + uniform(-8m, 8m)"
config **.loRaNodes[44].**.initialX "900m + uniform(-10m, 10m)"
config **.loRaNodes[44].**.initialY "730m + uniform(-8m, 8m)"
config **.loRaNodes[45].**.initialX "1050m + uniform(-10m, 10m)"
config **.loRaNodes[45].**.initialY "730m + uniform(-8m, 8m)"
config **.loRaNodes[46].**.initialX "1200m + uniform(-10m, 10m)"
config **.loRaNodes[46].**.initialY "730m + uniform(-8m, 8m)"
config **.loRaNodes[47].**.initialX "1350m + uniform(-10m, 10m)"
config **.loRaNodes[47].**.initialY "730m + uniform(-8m, 8m)"
config **.loRaNodes[48].**.initialX "1500m + uniform(-10m, 10m)"
config **.loRaNodes[48].**.initialY "730m + uniform(-8m, 8m)"
config **.loRaNodes[49].**.initialX "1650m + uniform(-10m, 10m)"
config **.loRaNodes[49].**.initialY "730m + uniform(-8m, 8m)"
config **.loRaNodes[50].**.initialX "300m + uniform(-10m, 10m)"
config **.loRaNodes[50].**.initialY "850m + uniform(-8m, 8m)"
config **.loRaNodes[51].**.initialX "450m + uniform(-10m, 10m)"
config **.loRaNodes[51].**.initialY "850m + uniform(-8m, 8m)"
config **.loRaNodes[52].**.initialX "600m + uniform(-10m, 10m)"
config **.loRaNodes[52].**.initialY "850m + uniform(-8m, 8m)"
config **.loRaNodes[53].**.initialX "750m + uniform(-10m, 10m)"
config **.loRaNodes[53].**.initialY "850m + uniform(-8m, 8m)"
config **.loRaNodes[54].**.initialX "900m + uniform(-10m, 10m)"
config **.loRaNodes[54].**.initialY "850m + uniform(-8m, 8m)"
config **.loRaNodes[55].**.initialX "1050m + uniform(-10m, 10m)"
config **.loRaNodes[55].**.initialY "850m + uniform(-8m, 8m)"
config **.loRaNodes[56].**.initialX "1200m + uniform(-10m, 10m)"
config **.loRaNodes[56].**.initialY "850m + uniform(-8m, 8m)"
config **.loRaNodes[57].**.initialX "1350m + uniform(-10m, 10m)"
config **.loRaNodes[57].**.initialY "850m + uniform(-8m, 8m)"
config **.loRaNodes[58].**.initialX "1500m + uniform(-10m, 10m)"
config **.loRaNodes[58].**.initialY "850m + uniform(-8m, 8m)"
config **.loRaNodes[59].**.initialX "1650m + uniform(-10m, 10m)"
config **.loRaNodes[59].**.initialY "850m + uniform(-8m, 8m)"
config **.loRaNodes[60].**.initialX "300m + uniform(-10m, 10m)"
config **.loRaNodes[60].**.initialY "970m + uniform(-8m, 8m)"
config **.loRaNodes[61].**.initialX "450m + uniform(-10m, 10m)"
config **.loRaNodes[61].**.initialY "970m + uniform(-8m, 8m)"
config **.loRaNodes[62].**.initialX "600m + uniform(-10m, 10m)"
config **.loRaNodes[62].**.initialY "970m + uniform(-8m, 8m)"
config **.loRaNodes[63].**.initialX "750m + uniform(-10m, 10m)"
config **.loRaNodes[63].**.initialY "970m + uniform(-8m, 8m)"
config **.loRaNodes[64].**.initialX "900m + uniform(-10m, 10m)"
config **.loRaNodes[64].**.initialY "970m + uniform(-8m, 8m)"
config **.loRaNodes[65].**.initialX "1050m + uniform(-10m, 10m)"
config **.loRaNodes[65].**.initialY "970m + uniform(-8m, 8m)"
config **.loRaNodes[66].**.initialX "1200m + uniform(-10m, 10m)"
config **.loRaNodes[66].**.initialY "970m + uniform(-8m, 8m)"
config **.loRaNodes[67].**.initialX "1350m + uniform(-10m, 10m)"
config **.loRaNodes[67].**.initialY "970m + uniform(-8m, 8m)"
config **.loRaNodes[68].**.initialX "1500m + uniform(-10m, 10m)"
config **.loRaNodes[68].**.initialY "970m + uniform(-8m, 8m)"
config **.loRaNodes[69].**.initialX "1650m + uniform(-10m, 10m)"
config **.loRaNodes[69].**.initialY "970m + uniform(-8m, 8m)"
config **.loRaNodes[70].**.initialX "300m + uniform(-10m, 10m)"
config **.loRaNodes[70].**.initialY "1090m + uniform(-8m, 8m)"
config **.loRaNodes[71].**.initialX "450m + uniform(-10m, 10m)"
config **.loRaNodes[71].**.initialY "1090m + uniform(-8m, 8m)"
config **.loRaNodes[72].**.initialX "600m + uniform(-10m, 10m)"
config **.loRaNodes[72].**.initialY "1090m + uniform(-8m, 8m)"
config **.loRaNodes[73].**.initialX "750m + uniform(-10m, 10m)"
config **.loRaNodes[73].**.initialY "1090m + uniform(-8m, 8m)"
config **.loRaNodes[74].**.initialX "900m + uniform(-10m, 10m)"
config **.loRaNodes[74].**.initialY "1090m + uniform(-8m, 8m)"
config **.HospitalServer.numApps 1
config **.HospitalServer.app[0].typename HospitalServerApp
config **.HospitalServer.app[0].destPort 2000
config **.HospitalServer.app[0].localPort 1000
config **.HospitalServer.app[0].adrMethod "\"avg\""
config **.HospitalServer.**.evaluateADRinServer true
config **.HospitalServer.app[0].queueSize 50
config **.HospitalServer.app[0].expo_rate_lambda 0.83
config **.loRaGateway.numUdpApps 1
config **.loRaGateway.packetForwarder.localPort 2000
config **.loRaGateway.packetForwarder.destPort 1000
config **.loRaGateway.packetForwarder.destAddresses "\"HospitalServer\""
config **.loRaGateway.**.initFromDisplayString false
config **.loRaGateway.**.initialX 544.00m
config **.loRaGateway.**.initialY 544.00m
config **.loRaNodes[*].numApps 1
config **.loRaNodes[*].app[0].typename PatientSensorApp
config **.loRaNodes[*].app[0].expo_rate_lambda 0.00175
config **.loRaNodes[*].app[0].emergencyThreshold 50
config **.loRaNodes[*].**.timeToFirstPacket exponential(24s)
config **.loRaNodes[*].**.timeToNextPacket exponential(24s)
config **.loRaNodes[*].**.numberOfPacketsToSend 0
config **.loRaNodes[*].**initialLoRaSF 12
config **.loRaNodes[*].**initialLoRaTP 14dBm
config **.loRaNodes[*].**initialLoRaBW "125 kHz"
config **.loRaNodes[*].**initialLoRaCR 4
config **.loRaNodes[*].**.initFromDisplayString false
config **.loRaNodes[*].**.evaluateADRinNode true
config **.loRaNodes[*].LoRaNic.radio.energyConsumer.typename LoRaEnergyConsumer
config **.loRaNodes[*].**.energySourceModule "\"^.IdealEpEnergyStorage\""
config **.loRaNodes[*].LoRaNic.radio.energyConsumer.configFile "xmldoc(\"energyConsumptionParam.xml\")"
config **.maxTransmissionDuration 4s
config **.energyDetection -110dBm
config **.radio.radioMediumModule "\"LoRaMedium\""
config **.minInterferenceTime 0s
config **.constraintAreaMinX 0m
config **.constraintAreaMinY 0m
config **.constraintAreaMinZ 0m
config **.constraintAreaMaxZ 0m
config **.constraintAreaMaxX 3000.0m
config **.constraintAreaMaxY 3000.0m

vector 0 LoRaNetworkTest.loRaNodes[22].app[0] emergencyVariate:vector ETV
attr recordingmode vector
attr title "Exponential variate samples"
vector 1 LoRaNetworkTest.HospitalServer.app[0] queueLength:vector ETV
attr recordingmode vector
attr title "Total queue length"
vector 2 LoRaNetworkTest.HospitalServer.app[0] normalWaitTime:vector ETV
attr recordingmode vector
attr title "Normal wait time (s)"
vector 3 LoRaNetworkTest.HospitalServer.app[0] normalEndToEndDelay:vector ETV
attr recordingmode vector
attr title "Normal end-to-end delay (s)"
vector 4 LoRaNetworkTest.loRaNodes[28].app[0] emergencyVariate:vector ETV
attr recordingmode vector
attr title "Exponential variate samples"
vector 5 LoRaNetworkTest.loRaNodes[40].app[0] emergencyVariate:vector ETV
attr recordingmode vector
attr title "Exponential variate samples"
vector 6 LoRaNetworkTest.loRaNodes[0].app[0] emergencyVariate:vector ETV
attr recordingmode vector
attr title "Exponential variate samples"
vector 7 LoRaNetworkTest.loRaNodes[26].app[0] emergencyVariate:vector ETV
attr recordingmode vector
attr title "Exponential variate samples"
vector 8 LoRaNetworkTest.loRaNodes[47].app[0] emergencyVariate:vector ETV
attr recordingmode vector
attr title "Exponential variate samples"
vector 9 LoRaNetworkTest.loRaNodes[42].app[0] emergencyVariate:vector ETV
attr recordingmode vector
attr title "Exponential variate samples"
vector 10 LoRaNetworkTest.HospitalServer.app[0] urgentWaitTime:vector ETV
attr recordingmode vector
attr title "Urgent wait time (s)"
vector 11 LoRaNetworkTest.HospitalServer.app[0] urgentEndToEndDelay:vector ETV
attr recordingmode vector
attr title "Urgent end-to-end delay (s)"
vector 12 LoRaNetworkTest.loRaNodes[67].app[0] emergencyVariate:vector ETV
attr recordingmode vector
attr title "Exponential variate samples"
vector 13 LoRaNetworkTest.loRaNodes[5].app[0] emergencyVariate:vector ETV
attr recordingmode vector
attr title "Exponential variate samples"
vector 14 LoRaNetworkTest.loRaNodes[33].app[0] emergencyVariate:vector ETV
attr recordingmode vector
attr title "Exponential variate samples"
vector 15 LoRaNetworkTest.loRaNodes[48].app[0] emergencyVariate:vector ETV
attr recordingmode vector
attr title "Exponential variate samples"
vector 16 LoRaNetworkTest.loRaNodes[25].app[0] emergencyVariate:vector ETV
attr recordingmode vector
attr title "Exponential variate samples"
vector 17 LoRaNetworkTest.loRaNodes[27].app[0] emergencyVariate:vector ETV
attr recordingmode vector
attr title "Exponential variate samples"
vector 18 LoRaNetworkTest.loRaNodes[29].app[0] emergencyVariate:vector ETV
attr recordingmode vector
attr title "Exponential variate samples"
vector 19 LoRaNetworkTest.loRaNodes[58].app[0] emergencyVariate:vector ETV
attr recordingmode vector
attr title "Exponential variate samples"
vector 20 LoRaNetworkTest.loRaNodes[74].app[0] emergencyVariate:vector ETV
attr recordingmode vector
attr title "Exponential variate samples"
vector 21 LoRaNetworkTest.loRaNodes[38].app[0] emergencyVariate:vector ETV
attr recordingmode vector
attr title "Exponential variate samples"
vector 22 LoRaNetworkTest.loRaNodes[6].app[0] emergencyVariate:vector ETV
attr recordingmode vector
attr title "Exponential variate samples"
vector 23 LoRaNetworkTest.loRaNodes[53].app[0] emergencyVariate:vector ETV
attr recordingmode vector
attr title "Exponential variate samples"
vector 24 LoRaNetworkTest.loRaNodes[2].app[0] emergencyVariate:vector ETV
attr recordingmode vector
attr title "Exponential variate samples"
vector 25 LoRaNetworkTest.loRaNodes[1].app[0] emergencyVariate:vector ETV
attr recordingmode vector
attr title "Exponential variate samples"
vector 26 LoRaNetworkTest.loRaNodes[66].app[0] emergencyVariate:vector ETV
attr recordingmode vector
attr title "Exponential variate samples"
vector 27 LoRaNetworkTest.loRaNodes[43].app[0] emergencyVariate:vector ETV
attr recordingmode vector
attr title "Exponential variate samples"
vector 28 LoRaNetworkTest.loRaNodes[57].app[0] emergencyVariate:vector ETV
attr recordingmode vector
attr title "Exponential variate samples"
vector 29 LoRaNetworkTest.loRaNodes[71].app[0] emergencyVariate:vector ETV
attr recordingmode vector
attr title "Exponential variate samples"
vector 30 LoRaNetworkTest.loRaNodes[8].app[0] emergencyVariate:vector ETV
attr recordingmode vector
attr title "Exponential variate samples"
vector 31 LoRaNetworkTest.loRaNodes[52].app[0] emergencyVariate:vector ETV
attr recordingmode vector
attr title "Exponential variate samples"
vector 32 LoRaNetworkTest.loRaNodes[18].app[0] emergencyVariate:vector ETV
attr recordingmode vector
attr title "Exponential variate samples"
vector 33 LoRaNetworkTest.loRaNodes[23].app[0] emergencyVariate:vector ETV
attr recordingmode vector
attr title "Exponential variate samples"
vector 34 LoRaNetworkTest.loRaNodes[34].app[0] emergencyVariate:vector ETV
attr recordingmode vector
attr title "Exponential variate samples"
vector 35 LoRaNetworkTest.loRaNodes[13].app[0] emergencyVariate:vector ETV
attr recordingmode vector
attr title "Exponential variate samples"
vector 36 LoRaNetworkTest.loRaNodes[15].app[0] emergencyVariate:vector ETV
attr recordingmode vector
attr title "Exponential variate samples"
vector 37 LoRaNetworkTest.loRaNodes[68].app[0] emergencyVariate:vector ETV
attr recordingmode vector
attr title "Exponential variate samples"
vector 38 LoRaNetworkTest.loRaNodes[60].app[0] emergencyVariate:vector ETV
attr recordingmode vector
attr title "Exponential variate samples"
vector 39 LoRaNetworkTest.loRaNodes[72].app[0] emergencyVariate:vector ETV
attr recordingmode vector
attr title "Exponential variate samples"
vector 40 LoRaNetworkTest.loRaNodes[64].app[0] emergencyVariate:vector ETV
attr recordingmode vector
attr title "Exponential variate samples"
vector 41 LoRaNetworkTest.loRaNodes[73].app[0] emergencyVariate:vector ETV
attr recordingmode vector
attr title "Exponential variate samples"
vector 42 LoRaNetworkTest.loRaNodes[50].app[0] emergencyVariate:vector ETV
attr recordingmode vector
attr title "Exponential variate samples"
vector 43 LoRaNetworkTest.loRaNodes[12].app[0] emergencyVariate:vector ETV
attr recordingmode vector
attr title "Exponential variate samples"
vector 44 LoRaNetworkTest.loRaNodes[51].app[0] emergencyVariate:vector ETV
attr recordingmode vector
attr title "Exponential variate samples"
vector 45 LoRaNetworkTest.loRaNodes[54].app[0] emergencyVariate:vector ETV
attr recordingmode vector
attr title "Exponential variate samples"
vector 46 LoRaNetworkTest.loRaNodes[39].app[0] emergencyVariate:vector ETV
attr recordingmode vector
attr title "Exponential variate samples"
vector 47 LoRaNetworkTest.loRaNodes[35].app[0] emergencyVariate:vector ETV
attr recordingmode vector
attr title "Exponential variate samples"
vector 48 LoRaNetworkTest.loRaNodes[10].app[0] emergencyVariate:vector ETV
attr recordingmode vector
attr title "Exponential variate samples"
vector 49 LoRaNetworkTest.loRaNodes[17].app[0] emergencyVariate:vector ETV
attr recordingmode vector
attr title "Exponential variate samples"
vector 50 LoRaNetworkTest.loRaNodes[41].app[0] emergencyVariate:vector ETV
attr recordingmode vector
attr title "Exponential variate samples"
vector 51 LoRaNetworkTest.loRaNodes[19].app[0] emergencyVariate:vector ETV
attr recordingmode vector
attr title "Exponential variate samples"
vector 52 LoRaNetworkTest.loRaNodes[44].app[0] emergencyVariate:vector ETV
attr recordingmode vector
attr title "Exponential variate samples"
vector 53 LoRaNetworkTest.loRaNodes[11].app[0] emergencyVariate:vector ETV
attr recordingmode vector
attr title "Exponential variate samples"
vector 54 LoRaNetworkTest.loRaNodes[56].app[0] emergencyVariate:vector ETV
attr recordingmode vector
attr title "Exponential variate samples"
vector 55 LoRaNetworkTest.loRaNodes[63].app[0] emergencyVariate:vector ETV
attr recordingmode vector
attr title "Exponential variate samples"
vector 56 LoRaNetworkTest.loRaNodes[69].app[0] emergencyVariate:vector ETV
attr recordingmode vector
attr title "Exponential variate samples"
vector 57 LoRaNetworkTest.loRaNodes[20].app[0] emergencyVariate:vector ETV
attr recordingmode vector
attr title "Exponential variate samples"
vector 58 LoRaNetworkTest.loRaNodes[30].app[0] emergencyVariate:vector ETV
attr recordingmode vector
attr title "Exponential variate samples"
vector 59 LoRaNetworkTest.loRaNodes[4].app[0] emergencyVariate:vector ETV
attr recordingmode vector
attr title "Exponential variate samples"
vector 60 LoRaNetworkTest.loRaNodes[45].app[0] emergencyVariate:vector ETV
attr recordingmode vector
attr title "Exponential variate samples"
vector 61 LoRaNetworkTest.loRaNodes[70].app[0] emergencyVariate:vector ETV
attr recordingmode vector
attr title "Exponential variate samples"
vector 62 LoRaNetworkTest.loRaNodes[62].app[0] emergencyVariate:vector ETV
attr recordingmode vector
attr title "Exponential variate samples"
vector 63 LoRaNetworkTest.loRaNodes[24].app[0] emergencyVariate:vector ETV
attr recordingmode vector
attr title "Exponential variate samples"
vector 64 LoRaNetworkTest.loRaNodes[21].app[0] emergencyVariate:vector ETV
attr recordingmode vector
attr title "Exponential variate samples"
vector 65 LoRaNetworkTest.loRaNodes[61].app[0] emergencyVariate:vector ETV
attr recordingmode vector
attr title "Exponential variate samples"
vector 66 LoRaNetworkTest.loRaNodes[46].app[0] emergencyVariate:vector ETV
attr recordingmode vector
attr title "Exponential variate samples"
vector 67 LoRaNetworkTest.loRaNodes[3].app[0] emergencyVariate:vector ETV
attr recordingmode vector
attr title "Exponential variate samples"
vector 68 LoRaNetworkTest.loRaNodes[9].app[0] emergencyVariate:vector ETV
attr recordingmode vector
attr title "Exponential variate samples"
vector 69 LoRaNetworkTest.loRaNodes[16].app[0] emergencyVariate:vector ETV
attr recordingmode vector
attr title "Exponential variate samples"
vector 70 LoRaNetworkTest.loRaNodes[36].app[0] emergencyVariate:vector ETV
attr recordingmode vector
attr title "Exponential variate samples"
vector 71 LoRaNetworkTest.loRaNodes[37].app[0] emergencyVariate:vector ETV
attr recordingmode vector
attr title "Exponential variate samples"
vector 72 LoRaNetworkTest.loRaNodes[7].app[0] emergencyVariate:vector ETV
attr recordingmode vector
attr title "Exponential variate samples"
vector 73 LoRaNetworkTest.loRaNodes[55].app[0] emergencyVariate:vector ETV
attr recordingmode vector
attr title "Exponential variate samples"
vector 74 LoRaNetworkTest.loRaNodes[59].app[0] emergencyVariate:vector ETV
attr recordingmode vector
attr title "Exponential variate samples"
vector 75 LoRaNetworkTest.loRaNodes[14].app[0] emergencyVariate:vector ETV
attr recordingmode vector
attr title "Exponential variate samples"
vector 76 LoRaNetworkTest.loRaNodes[31].app[0] emergencyVariate:vector ETV
attr recordingmode vector
attr title "Exponential variate samples"
vector 77 LoRaNetworkTest.loRaNodes[49].app[0] emergencyVariate:vector ETV
attr recordingmode vector
attr title "Exponential variate samples"
vector 78 LoRaNetworkTest.loRaNodes[32].app[0] emergencyVariate:vector ETV
attr recordingmode vector
attr title "Exponential variate samples"
vector 79 LoRaNetworkTest.loRaNodes[65].app[0] emergencyVariate:vector ETV
attr recordingmode vector
attr title "Exponential variate samples"
0	11147	60.29828625921	402.45270829954
0	21467	251.75995558683	41.917434931587
0	32547	437.52025338797	558.53079989579
0	45881	640.3055837211	431.99908981947
0	57089	821.34086052756	149.75256684647
0	69275	1014.10492686364	1741.318530638
0	83886	1237.4477065635	2484.015977837
0	94771	1420.0583726731	1067.6119766186
0	106970	1604.78658595849	942.08589250948
0	119742	1806.05835669335	95.550723827515
0	132176	1996.73758087662	38.755878438901
0	142812	2174.83223707003	441.0317508856
0	156071	2377.88831497339	563.5250666315
0	167511	2554.54446043628	328.66387445306
0	178631	2731.37303574365	252.05766855934
0	194014	2964.10780252394	541.20775349862
0	207454	3171.12250225638	351.40810802872
0	220244	3358.55903188137	755.5145572631
0	231593	3534.33836107986	541.42979134722
1	11281	62.01041589346	1
1	11281	62.01041589346	0
1	11626	79.76545914393	1
1	11626	79.76545914393	0
1	11800	82.2786162762	1
1	11800	82.2786162762	0
1	12183	90.28980114837	1
1	12183	90.28980114837	0
1	12336	94.16752307197	1
1	12336	94.16752307197	0
1	12962	188.04307977955	1
1	12962	188.04307977955	0
1	14539	196.89434966273	1
1	14539	196.89434966273	0
1	15141	201.22586830228	1
1	15141	201.22586830228	0
1	15644	207.55465009172	1
1	15644	207.55465009172	0
1	16136	210.57287436825	1
1	16136	210.57287436825	0
1	16776	213.19928820049	1
1	16776	213.19928820049	0
1	17749	218.11388796532	1
1	17749	218.11388796532	0
1	18496	222.80130317277	1
1	18496	222.80130317277	0
1	18844	224.92085578833	1
1	18844	224.92085578833	0
1	19141	227.64857417404	1
1	19141	227.64857417404	0
1	19445	230.57461857519	1
1	19445	230.57461857519	0
1	19939	233.86847589296	1
1	19939	233.86847589296	0
1	20855	239.86085412309	1
1	20855	239.86085412309	0
1	21189	249.73010678804	1
1	21189	249.73010678804	0
1	21759	253.47208522108	1
1	21759	253.47208522108	0
1	22106	255.80242611044	1
1	22106	255.80242611044	0
1	22652	265.30165437401	1
1	22652	265.30165437401	0
1	23580	273.06913354783	1
1	23580	273.06913354783	0
1	24251	289.30321592582	1
1	24251	289.30321592582	0
1	24446	307.95049609155	1
1	24446	307.95049609155	0
1	24999	357.79169318377	1
1	24999	357.79169318377	0
1	25472	368.82740142968	1
1	25472	368.82740142968	0
1	26906	386.17113122329	1
1	26906	386.17113122329	0
1	27279	389.08082457664	1
1	27279	389.08082457664	0
1	28083	394.8455234661	1
1	28083	394.8455234661	0
1	28996	400.71179350563	1
1	28996	400.71179350563	0
1	29777	407.34132316183	1
1	29777	407.34132316183	0
1	30400	415.87248903092	1
1	30400	415.87248903092	0
1	30744	421.15120384615	1
1	30744	421.15120384615	0
1	31197	425.30601966002	1
1	31197	425.30601966002	0
1	32113	431.55415137195	1
1	32113	431.55415137195	0
1	32916	439.23238302222	1
1	32916	439.23238302222	0
1	33671	443.82852375459	1
1	33671	443.82852375459	0
1	34242	453.52645414261	1
1	34242	453.52645414261	0
1	35008	462.85439098653	1
1	35008	462.85439098653	0
1	35327	467.44883305647	1
1	35327	467.44883305647	0
1	36049	483.81056229869	1
1	36049	483.81056229869	0
1	36551	499.27987355943	1
1	36551	499.27987355943	0
1	36697	502.97107875377	1
1	36697	502.97107875377	0
1	37205	525.56609237809	1
1	37205	525.56609237809	0
1	37556	544.015331611	1
1	37556	544.015331611	0
1	37949	557.79016623915	1
1	37949	557.79016623915	0
1	38251	564.383614515	1
1	38251	564.383614515	0
1	38503	568.06526350262	1
1	38503	568.06526350262	0
1	38750	572.20120215798	1
1	38750	572.20120215798	0
1	38949	574.66719241982	1
1	38954	574.80330007698	0
1	39188	576.67678983387	1
1	39188	576.67678983387	0
1	39604	578.45399959128	1
1	39604	578.45399959128	0
1	40204	583.92824996353	1
1	40204	583.92824996353	0
1	40438	587.51482396371	1
1	40438	587.51482396371	0
1	41111	593.2070818372	1
1	41111	593.2070818372	0
1	41470	595.97591114824	1
1	41470	595.97591114824	0
1	41773	598.00028244982	1
1	41773	598.00028244982	0
1	42145	600.62797813454	1
1	42145	600.62797813454	0
1	42607	606.0906678191	1
1	42607	606.0906678191	0
1	42844	609.31247185293	1
1	42844	609.31247185293	0
1	43122	611.72936908339	1
1	43122	611.72936908339	0
1	43781	617.10636519257	1
1	43781	617.10636519257	0
1	44093	623.05548209158	1
1	44093	623.05548209158	0
1	45100	628.64658206516	1
1	45100	628.64658206516	0
1	45667	636.25831754923	1
1	45667	636.25831754923	0
1	45871	639.0620963417	1
1	45871	639.0620963417	0
1	46013	642.01771335535	1
1	46136	642.2111188648	0
1	46193	643.83287144993	1
1	46237	643.95698649297	0
1	46542	655.66470118119	1
1	46542	655.66470118119	0
1	47627	668.93130275723	1
1	47627	668.93130275723	0
1	47855	670.804854917	1
1	47855	670.804854917	0
1	48282	678.04279496477	1
1	48282	678.04279496477	0
1	48851	683.10767259281	1
1	48851	683.10767259281	0
1	49211	697.58296148389	1
1	49211	697.58296148389	0
1	49412	711.36116971623	1
1	49412	711.36116971623	0
1	49753	723.65544549911	1
1	49753	723.65544549911	0
1	50127	738.93074003515	1
1	50127	738.93074003515	0
1	50443	745.93138886279	1
1	50443	745.93138886279	0
1	51924	769.53157295385	1
1	51924	769.53157295385	0
1	53276	786.8546777245	1
1	53276	786.8546777245	0
1	53675	790.10631553255	1
1	53675	790.10631553255	0
1	54353	794.36478713936	1
1	54353	794.36478713936	0
1	54667	796.71244223052	1
1	54667	796.71244223052	0
1	55174	801.28137261258	1
1	55174	801.28137261258	0
1	55674	805.42764521046	1
1	55674	805.42764521046	0
1	55903	808.08770181168	1
1	55903	808.08770181168	0
1	56611	813.27838886152	1
1	56611	813.27838886152	0
1	56901	817.5559401672	1
1	56901	817.5559401672	0
1	57085	820.87808176558	1
1	57085	820.87808176558	0
1	57382	823.05299016181	1
1	57582	824.32845693825	0
1	58047	835.09022445673	1
1	58047	835.09022445673	0
1	58245	837.17794125935	1
1	58245	837.17794125935	0
1	58739	840.69335832391	1
1	58739	840.69335832391	0
1	60249	869.92030974405	1
1	60249	869.92030974405	0
1	60712	882.38714610432	1
1	60712	882.38714610432	0
1	60932	887.23454300058	1
1	60932	887.23454300058	0
1	61158	898.04809555286	1
1	61158	898.04809555286	0
1	61732	905.98398477115	1
1	61732	905.98398477115	0
1	62147	916.73145595974	1
1	62147	916.73145595974	0
1	62893	930.17195613366	1
1	62893	930.17195613366	0
1	63965	948.96401719877	1
1	63965	948.96401719877	0
1	64233	950.74277219541	1
1	64239	951.37416110791	0
1	64542	954.96467697948	1
1	64542	954.96467697948	0
1	64751	960.69469501579	1
1	64751	960.69469501579	0
1	65169	966.46645630701	1
1	65169	966.46645630701	0
1	65447	970.55616363742	1
1	65447	970.55616363742	0
1	65826	976.72614120364	1
1	65826	976.72614120364	0
1	66099	978.88386688422	1
1	66099	978.88386688422	0
1	66974	993.23933745829	1
1	66974	993.23933745829	0
1	67232	996.11745438042	1
1	67232	996.11745438042	0
1	67917	999.04565517436	1
1	67917	999.04565517436	0
1	68923	1010.26369797042	1
1	68923	1010.26369797042	0
1	69650	1015.81705649789	1
1	69650	1015.81705649789	0
1	70076	1019.13927574865	1
1	70076	1019.13927574865	0
1	70498	1025.69873441557	1
1	70498	1025.69873441557	0
1	71162	1030.6120891085	1
1	71162	1030.6120891085	0
1	71673	1046.75350405285	1
1	71673	1046.75350405285	0
1	72083	1053.04833036149	1
1	72083	1053.04833036149	0
1	72572	1062.20350986254	1
1	72572	1062.20350986254	0
1	72800	1072.67052399594	1
1	72800	1072.67052399594	0
1	73266	1088.19213434225	1
1	73266	1088.19213434225	0
1	73534	1090.28473450573	1
1	73534	1090.28473450573	0
1	74287	1109.54980445877	1
1	74287	1109.54980445877	0
1	74984	1119.791202467	1
1	74984	1119.791202467	0
1	75231	1123.67769747437	1
1	75231	1123.67769747437	0
1	75922	1127.02723685063	1
1	75922	1127.02723685063	0
1	76241	1131.4486274468	1
1	76241	1131.4486274468	0
1	76472	1137.48770339272	1
1	76472	1137.48770339272	0
1	76644	1144.37318720109	1
1	76644	1144.37318720109	0
1	76842	1150.13919261871	1
1	76842	1150.13919261871	0
1	77009	1154.35868247141	1
1	77009	1154.35868247141	0
1	77752	1159.85525803215	1
1	77752	1159.85525803215	0
1	78724	1171.96197892421	1
1	78724	1171.96197892421	0
1	79021	1176.50242986013	1
1	79021	1176.50242986013	0
1	79661	1189.86165208705	1
1	79661	1189.86165208705	0
1	80004	1191.79019541642	1
1	80252	1193.77326629798	0
1	80311	1194.3435304242	1
1	80535	1196.22656019692	2
1	80916	1199.2011670257	3
1	81037	1199.82976637603	2
1	81038	1200.08936511478	1
1	81045	1200.48872547801	0
1	81364	1203.71385795731	1
1	81364	1203.71385795731	0
1	81768	1205.86588265401	1
1	81768	1205.86588265401	0
1	82137	1208.26895245657	1
1	82137	1208.26895245657	0
1	82359	1210.42245585227	1
1	82359	1210.42245585227	0
1	83184	1230.34864182115	1
1	83184	1230.34864182115	0
1	83371	1233.33228032778	1
1	83371	1233.33228032778	0
1	84174	1239.15983619775	1
1	84174	1239.15983619775	0
1	84516	1251.22331279257	1
1	84516	1251.22331279257	0
1	85072	1270.26039539331	1
1	85072	1270.26039539331	0
1	85274	1272.57099269552	1
1	85274	1272.57099269552	0
1	86449	1286.11830700779	1
1	86449	1286.11830700779	0
1	87702	1307.00942856552	1
1	87702	1307.00942856552	0
1	88323	1326.74487016705	1
1	88323	1326.74487016705	0
1	88907	1334.93919983308	1
1	88907	1334.93919983308	0
1	89416	1344.00490274362	1
1	89416	1344.00490274362	0
1	89699	1348.19041860073	1
1	89699	1348.19041860073	0
1	89847	1352.82649839607	1
1	89847	1352.82649839607	0
1	90204	1356.62998406826	1
1	90204	1356.62998406826	0
1	90476	1361.36484229518	1
1	90476	1361.36484229518	0
1	90796	1366.43965671428	1
1	90796	1366.43965671428	0
1	91132	1369.85393878051	1
1	91132	1369.85393878051	0
1	91923	1374.35005086275	1
1	91923	1374.35005086275	0
1	92406	1378.21716247337	1
1	92406	1378.21716247337	0
1	92599	1382.35630022446	1
1	92599	1382.35630022446	0
1	93191	1387.66111827015	1
1	93191	1387.66111827015	0
1	94393	1404.5627550587	1
1	94393	1404.5627550587	0
1	94641	1409.50334662529	1
1	94641	1409.50334662529	0
1	94902	1421.77050230735	1
1	94902	1421.77050230735	0
1	95199	1426.11500644018	1
1	95199	1426.11500644018	0
1	95807	1429.21791529015	1
1	95807	1429.21791529015	0
1	96472	1435.05026468411	1
1	96472	1435.05026468411	0
1	96745	1441.04602814661	1
1	96745	1441.04602814661	0
1	97118	1446.20784029793	1
1	97118	1446.20784029793	0
1	97278	1449.75716535618	1
1	97278	1449.75716535618	0
1	97645	1459.85163536697	1
1	97645	1459.85163536697	0
1	98043	1465.56445139072	1
1	98043	1465.56445139072	0
1	98400	1469.47508740156	1
1	98400	1469.47508740156	0
1	98826	1482.48441287903	1
1	98826	1482.48441287903	0
1	98963	1485.82979061222	1
1	98963	1485.82979061222	0
1	99216	1494.49895706936	1
1	99216	1494.49895706936	0
1	99520	1503.12098886667	1
1	99520	1503.12098886667	0
1	100195	1514.01908933608	1
1	100195	1514.01908933608	0
1	100513	1523.35533394377	1
1	100513	1523.35533394377	0
1	101019	1527.39045622597	1
1	101019	1527.39045622597	0
1	101272	1536.49866764349	1
1	101272	1536.49866764349	0
1	101547	1539.53629583888	1
1	101547	1539.53629583888	0
1	101824	1543.9381177686	1
1	101824	1543.9381177686	0
1	102135	1548.78778110999	1
1	102135	1548.78778110999	0
1	102632	1553.39689699777	1
1	102632	1553.39689699777	0
1	103217	1559.95167426043	1
1	103217	1559.95167426043	0
1	104338	1574.64872811518	1
1	104338	1574.64872811518	0
1	105161	1582.28845095959	1
1	105161	1582.28845095959	0
1	106007	1590.63758018164	1
1	106007	1590.63758018164	0
1	106264	1594.67878730154	1
1	106264	1594.67878730154	0
1	106540	1597.18990674106	1
1	106540	1597.18990674106	0
1	106965	1604.68084945847	1
1	106965	1604.68084945847	0
1	107181	1606.49871559274	1
1	107181	1606.49871559274	0
1	107564	1610.39729371852	1
1	107564	1610.39729371852	0
1	108097	1620.84853754606	1
1	108097	1620.84853754606	0
1	108278	1625.3007966873	1
1	108278	1625.3007966873	0
1	108612	1628.25149404935	1
1	108612	1628.25149404935	0
1	108924	1630.31633895896	1
1	108924	1630.31633895896	0
1	109337	1643.07643321135	1
1	109337	1643.07643321135	0
1	109797	1648.11955924647	1
1	109797	1648.11955924647	0
1	109982	1654.82115378303	1
1	109982	1654.82115378303	0
1	110239	1658.57856185072	1
1	110239	1658.57856185072	0
1	110860	1671.07855095799	1
1	110860	1671.07855095799	0
1	111267	1673.18764969342	1
1	111267	1673.18764969342	0
1	111812	1687.53971853441	1
1	111812	1687.53971853441	0
1	112213	1700.35229214459	1
1	112213	1700.35229214459	0
1	112467	1704.45726475039	1
1	112467	1704.45726475039	0
1	112839	1710.27975060943	1
1	112839	1710.27975060943	0
1	112977	1712.1522349751	1
1	112977	1712.1522349751	0
1	113164	1714.45690473503	1
1	113164	1714.45690473503	0
1	113463	1719.8466262199	1
1	113463	1719.8466262199	0
1	113709	1722.28528176658	1
1	113709	1722.28528176658	0
1	113902	1730.45405994013	1
1	113902	1730.45405994013	0
1	114049	1732.34575034524	1
1	114049	1732.34575034524	0
1	114500	1735.32283703189	1
1	114500	1735.32283703189	0
1	115513	1750.70245447235	1
1	115513	1750.70245447235	0
1	116727	1767.62759257528	1
1	116727	1767.62759257528	0
1	117045	1771.37328158093	1
1	117073	1771.83510806962	0
1	117851	1777.58005393708	1
1	117851	1777.58005393708	0
1	118461	1783.54899823749	1
1	118461	1783.54899823749	0
1	118694	1790.54973959107	1
1	118694	1790.54973959107	0
1	118880	1792.97886598307	1
1	118880	1792.97886598307	0
1	119720	1799.63897413735	1
1	119720	1799.63897413735	0
1	119873	1807.7704863276	1
1	119873	1807.7704863276	0
1	120139	1810.09907023507	1
1	120139	1810.09907023507	0
1	120474	1814.45392992493	1
1	120474	1814.45392992493	0
1	120910	1821.41670069265	1
1	120910	1821.41670069265	0
1	121402	1824.32734948264	1
1	121402	1824.32734948264	0
1	121689	1827.34902147051	1
1	121774	1828.47616412403	0
1	122197	1842.1609003759	1
1	122197	1842.1609003759	0
1	123458	1860.32311901606	1
1	123458	1860.32311901606	0
1	123908	1867.86573160942	1
1	123908	1867.86573160942	0
1	124122	1878.65410141198	1
1	124122	1878.65410141198	0
1	124303	1885.8448096215	1
1	124303	1885.8448096215	0
1	124923	1895.71674286879	1
1	124923	1895.71674286879	0
1	125289	1900.25460838815	1
1	125289	1900.25460838815	0
1	125515	1902.32518936388	1
1	125515	1902.32518936388	0
1	126175	1922.88295459624	1
1	126175	1922.88295459624	0
1	126424	1924.57336219298	1
1	126424	1924.57336219298	0
1	126663	1929.60333981087	1
1	126663	1929.60333981087	0
1	126962	1932.41099912946	1
1	126962	1932.41099912946	0
1	127806	1945.71574514234	1
1	127806	1945.71574514234	0
1	128152	1948.8520650505	1
1	128152	1948.8520650505	0
1	129028	1957.22830676615	1
1	129028	1957.22830676615	0
1	129590	1960.64218058212	1
1	129590	1960.64218058212	0
1	130034	1964.01457517839	1
1	130034	1964.01457517839	0
1	131081	1984.50198861813	1
1	131081	1984.50198861813	0
1	131968	1994.14882320011	1
1	131968	1994.14882320011	0
1	132625	1998.44971051087	1
1	132625	1998.44971051087	0
1	133280	2012.20606314834	1
1	133280	2012.20606314834	0
1	133736	2021.0562929447	1
1	133736	2021.0562929447	0
1	134556	2028.40992568367	1
1	134556	2028.40992568367	0
1	134922	2032.91236826217	1
1	134922	2032.91236826217	0
1	135650	2043.49948902546	1
1	135650	2043.49948902546	0
1	136377	2069.84154246517	1
1	136377	2069.84154246517	0
1	136601	2074.71097911955	1
1	136601	2074.71097911955	0
1	136778	2077.3646665647	1
1	136778	2077.3646665647	0
1	136916	2079.34255230764	1
1	136916	2079.34255230764	0
1	137133	2083.94281866917	1
1	137133	2083.94281866917	0
1	137324	2087.07891825663	1
1	137324	2087.07891825663	0
1	138025	2107.71017201388	1
1	138025	2107.71017201388	0
1	138791	2122.63318789176	1
1	138791	2122.63318789176	0
1	139133	2125.93464550572	1
1	139133	2125.93464550572	0
1	139815	2133.78052767612	1
1	139815	2133.78052767612	0
1	140006	2137.04863997496	1
1	140006	2137.04863997496	0
1	140332	2141.37299620852	1
1	140332	2141.37299620852	0
1	140667	2145.96382358987	1
1	140667	2145.96382358987	0
1	140909	2148.33259997797	1
1	140909	2148.33259997797	0
1	141208	2153.81498446182	1
1	141208	2153.81498446182	0
1	141526	2156.53661250682	1
1	141706	2157.78951691011	0
1	142173	2166.87451579236	1
1	142173	2166.87451579236	0
1	142550	2171.98736978784	1
1	142550	2171.98736978784	0
1	142783	2173.79803257457	1
1	142810	2174.68141879782	0
1	143027	2176.54436670428	1
1	143078	2178.72079510765	0
1	143466	2182.8577944967	1
1	143466	2182.8577944967	0
1	143874	2185.33648911964	1
1	143874	2185.33648911964	0
1	145174	2199.84149137209	1
1	145174	2199.84149137209	0
1	145505	2202.49323732043	1
1	145505	2202.49323732043	0
1	145866	2205.20041851929	1
1	145866	2205.20041851929	0
1	146347	2209.54768059975	1
1	146347	2209.54768059975	0
1	146536	2214.68407204575	1
1	146536	2214.68407204575	0
1	146907	2216.99467585564	1
1	146907	2216.99467585564	0
1	147233	2223.80669593761	1
1	147233	2223.80669593761	0
1	147750	2237.77115829174	1
1	147750	2237.77115829174	0
1	147989	2241.79243071915	1
1	147989	2241.79243071915	0
1	149420	2262.8820367891	1
1	149420	2262.8820367891	0
1	149638	2271.47350319828	1
1	149638	2271.47350319828	0
1	149942	2292.8726689781	1
1	149942	2292.8726689781	0
1	150742	2302.96950844124	1
1	150742	2302.96950844124	0
1	150905	2305.70456800624	1
1	150905	2305.70456800624	0
1	151121	2309.89715449744	1
1	151121	2309.89715449744	0
1	151301	2312.68306047314	1
1	151301	2312.68306047314	0
1	151562	2318.48152248647	1
1	151562	2318.48152248647	0
1	152249	2323.74038156606	1
1	152249	2323.74038156606	0
1	152527	2327.04124968393	1
1	152527	2327.04124968393	0
1	152972	2331.46461725099	1
1	152972	2331.46461725099	0
1	153476	2338.58122178326	1
1	153476	2338.58122178326	0
1	154196	2355.98969320442	1
1	154196	2355.98969320442	0
1	154859	2358.21659114742	1
1	154859	2358.21659114742	0
1	156289	2379.60044460764	1
1	156289	2379.60044460764	0
1	156590	2382.37348378515	1
1	156670	2382.58733987538	0
1	157203	2391.91807666991	1
1	157203	2391.91807666991	0
1	157664	2394.29596218584	1
1	157664	2394.29596218584	0
1	157915	2396.80392563832	1
1	158035	2397.17401696896	0
1	158833	2408.14862445145	1
1	158833	2408.14862445145	0
1	159087	2410.01235140161	1
1	159087	2410.01235140161	0
1	159741	2418.96139401889	1
1	159741	2418.96139401889	0
1	159962	2426.38259557247	1
1	159962	2426.38259557247	0
1	160538	2434.65063884566	1
1	160538	2434.65063884566	0
1	160780	2444.13509035956	1
1	160780	2444.13509035956	0
1	161023	2449.04719535095	1
1	161023	2449.04719535095	0
1	161593	2454.2970130511	1
1	161593	2454.2970130511	0
1	161969	2470.00572959517	1
1	161969	2470.00572959517	0
1	162280	2476.72840378344	1
1	162280	2476.72840378344	0
1	162703	2479.63888424946	1
1	162703	2479.63888424946	0
1	163239	2486.03533423464	1
1	163239	2486.03533423464	0
1	163820	2498.64771132023	1
1	163820	2498.64771132023	0
1	163966	2504.00628367555	1
1	163966	2504.00628367555	0
1	164692	2513.72947933848	1
1	164692	2513.72947933848	0
1	165569	2526.31347699359	1
1	165569	2526.31347699359	0
1	165983	2532.61131223182	1
1	165983	2532.61131223182	0
1	166418	2536.46671620265	1
1	166418	2536.46671620265	0
1	167130	2544.62257979758	1
1	167130	2544.62257979758	0
1	167475	2553.67650728118	1
1	167475	2553.67650728118	0
1	167646	2556.25659007053	1
1	167646	2556.25659007053	0
1	167996	2565.06842728363	1
1	167996	2565.06842728363	0
1	168272	2568.10518981025	1
1	168272	2568.10518981025	0
1	168677	2571.3940936696	1
1	168677	2571.3940936696	0
1	169912	2586.0063073271	1
1	169912	2586.0063073271	0
1	170697	2593.16680783322	1
1	170697	2593.16680783322	0
1	170879	2594.82174802815	1
1	170879	2594.82174802815	0
1	171007	2596.53043596596	1
1	171007	2596.53043596596	0
1	171192	2600.97823933446	1
1	171192	2600.97823933446	0
1	171393	2603.04135157924	1
1	171393	2603.04135157924	0
1	172809	2628.60748352471	1
1	172809	2628.60748352471	0
1	173536	2643.24518894378	1
1	173536	2643.24518894378	0
1	173719	2645.99148231766	1
1	173719	2645.99148231766	0
1	174692	2659.28960645062	1
1	174692	2659.28960645062	0
1	175035	2662.89771981254	1
1	175035	2662.89771981254	0
1	175295	2667.61914621146	1
1	175295	2667.61914621146	0
1	175531	2672.91047826703	1
1	175531	2672.91047826703	0
1	175902	2678.15373356943	1
1	175902	2678.15373356943	0
1	176243	2685.0646205667	1
1	176243	2685.0646205667	0
1	176505	2692.80284795079	1
1	176505	2692.80284795079	0
1	176887	2699.77231391644	1
1	176887	2699.77231391644	0
1	177410	2710.91791932736	1
1	177410	2710.91791932736	0
1	177605	2712.7677073184	1
1	177605	2712.7677073184	0
1	177920	2717.56678102564	1
1	177920	2717.56678102564	0
1	178258	2725.75470839164	1
1	178258	2725.75470839164	0
1	178626	2730.1582492166	1
1	178626	2730.1582492166	0
1	178845	2733.0851653779	1
1	178845	2733.0851653779	0
1	179194	2739.28281843001	1
1	179194	2739.28281843001	0
1	179459	2744.09202605905	1
1	179459	2744.09202605905	0
1	180828	2760.61295309137	1
1	180828	2760.61295309137	0
1	181477	2769.28177274561	1
1	181477	2769.28177274561	0
1	181637	2771.41510912566	1
1	181637	2771.41510912566	0
1	181895	2774.25113656183	1
1	181895	2774.25113656183	0
1	182297	2777.9476153444	1
1	182297	2777.9476153444	0
1	182639	2781.97036537832	1
1	182639	2781.97036537832	0
1	182839	2784.80874949076	1
1	182839	2784.80874949076	0
1	183554	2789.82366017976	1
1	183554	2789.82366017976	0
1	184101	2798.06594102028	1
1	184101	2798.06594102028	0
1	184318	2800.13053511953	1
1	184318	2800.13053511953	0
1	185920	2829.53607442875	1
1	185920	2829.53607442875	0
1	186311	2832.67899810081	1
1	186311	2832.67899810081	0
1	186502	2836.82633181115	1
1	186502	2836.82633181115	0
1	186718	2844.6395661372	1
1	186718	2844.6395661372	0
1	187154	2848.81908621512	1
1	187154	2848.81908621512	0
1	187479	2865.87918690441	1
1	187479	2865.87918690441	0
1	188501	2883.79369481771	1
1	188501	2883.79369481771	0
1	188818	2886.0459297757	1
1	188818	2886.0459297757	0
1	189286	2892.45563268601	1
1	189286	2892.45563268601	0
1	189843	2899.56667610245	1
1	189843	2899.56667610245	0
1	190207	2904.2258534318	1
1	190207	2904.2258534318	0
1	190506	2907.79081120099	1
1	190506	2907.79081120099	0
1	190706	2911.99030741754	1
1	190706	2911.99030741754	0
1	191071	2920.34101357678	1
1	191071	2920.34101357678	0
1	191368	2923.10315597946	1
1	191409	2924.17541292489	0
1	191905	2935.74577514497	1
1	191905	2935.74577514497	0
1	192058	2937.73198717268	1
1	192058	2937.73198717268	0
1	192811	2946.70540506287	1
1	192811	2946.70540506287	0
1	193247	2955.73503930722	1
1	193247	2955.73503930722	0
1	193485	2957.99045965457	1
1	193512	2958.99046003735	0
1	193983	2963.34636955554	1
1	193983	2963.34636955554	0
1	194227	2965.81993215819	1
1	194227	2965.81993215819	0
1	195364	2981.06205398579	1
1	195364	2981.06205398579	0
1	196203	2986.39825591736	1
1	196203	2986.39825591736	0
1	196357	2988.55098087711	1
1	196357	2988.55098087711	0
1	197377	3006.64703402848	1
1	197377	3006.64703402848	0
1	197764	3009.30809329713	1
1	197764	3009.30809329713	0
1	198095	3012.56534492879	1
1	198095	3012.56534492879	0
1	198318	3016.7479973655	1
1	198318	3016.7479973655	0
1	198699	3020.40456598033	1
1	198699	3020.40456598033	0
1	199122	3039.02543230825	1
1	199122	3039.02543230825	0
1	200216	3062.48290791612	1
1	200216	3062.48290791612	0
1	200890	3074.02811800323	1
1	200890	3074.02811800323	0
1	201137	3079.30440143456	1
1	201137	3079.30440143456	0
1	201725	3084.63665860008	1
1	201725	3084.63665860008	0
1	201924	3089.2447501688	1
1	201924	3089.2447501688	0
1	202118	3092.19329674183	1
1	202118	3092.19329674183	0
1	202420	3100.58974242958	1
1	202420	3100.58974242958	0
1	203812	3114.31349024119	1
1	203812	3114.31349024119	0
1	204257	3123.6603095486	1
1	204257	3123.6603095486	0
1	204563	3130.07143924167	1
1	204563	3130.07143924167	0
1	205514	3138.7129399513	1
1	205514	3138.7129399513	0
1	205912	3147.2631910606	1
1	205912	3147.2631910606	0
1	206477	3160.106045194	1
1	206477	3160.106045194	0
1	207243	3163.85270732876	1
1	207243	3163.85270732876	0
1	207396	3165.84536616567	1
1	207396	3165.84536616567	0
1	207585	3172.83463189063	1
1	207585	3172.83463189063	0
1	208394	3178.78083402208	1
1	208394	3178.78083402208	0
1	208836	3180.7932108583	1
1	208836	3180.7932108583	0
1	209328	3186.33287199798	1
1	209328	3186.33287199798	0
1	209593	3188.4335494672	1
1	209593	3188.4335494672	0
1	209763	3190.33828025177	1
1	209763	3190.33828025177	0
1	210191	3212.80085753575	1
1	210191	3212.80085753575	0
1	210487	3215.80931768479	1
1	210487	3215.80931768479	0
1	210749	3219.77405806478	1
1	210749	3219.77405806478	0
1	211009	3222.69667853929	1
1	211009	3222.69667853929	0
1	211195	3225.24527442124	1
1	211195	3225.24527442124	0
1	211989	3234.63115601316	1
1	211989	3234.63115601316	0
1	212413	3246.89184176359	1
1	212413	3246.89184176359	0
1	213671	3260.43890508954	1
1	213671	3260.43890508954	0
1	214306	3286.74245159184	1
1	214306	3286.74245159184	0
1	214514	3288.85418343563	1
1	214514	3288.85418343563	0
1	214780	3291.97226913615	1
1	214780	3291.97226913615	0
1	215120	3297.50409738152	1
1	215120	3297.50409738152	0
1	215819	3307.38383783037	1
1	215819	3307.38383783037	0
1	216266	3309.13983220226	1
1	216266	3309.13983220226	0
1	216670	3311.48476439195	1
1	216670	3311.48476439195	0
1	216958	3318.19642537303	1
1	216958	3318.19642537303	0
1	217197	3321.74691197283	1
1	217197	3321.74691197283	0
1	218394	3339.30656723578	1
1	218394	3339.30656723578	0
1	218913	3343.00797781208	1
1	218913	3343.00797781208	0
1	219402	3347.14562630814	1
1	219402	3347.14562630814	0
1	221257	3369.8965449451	1
1	221257	3369.8965449451	0
1	221459	3371.93229292282	1
1	221459	3371.93229292282	0
1	222243	3388.22585138112	1
1	222243	3388.22585138112	0
1	222990	3404.79416098018	1
1	222990	3404.79416098018	0
1	223281	3408.40068300238	1
1	223281	3408.40068300238	0
1	223964	3426.95074305287	1
1	223964	3426.95074305287	0
1	224122	3428.79948322922	1
1	224122	3428.79948322922	0
1	224626	3434.46584340397	1
1	224626	3434.46584340397	0
1	224979	3439.93087463869	1
1	224979	3439.93087463869	0
1	225549	3459.53052685617	1
1	225549	3459.53052685617	0
1	225837	3461.37241979486	1
1	225851	3462.66507340441	0
1	226240	3476.24020008549	1
1	226240	3476.24020008549	0
1	226501	3479.34579570411	1
1	226612	3480.81868704236	0
1	226835	3481.84014674639	1
1	226835	3481.84014674639	0
1	227347	3486.95679664113	1
1	227347	3486.95679664113	0
1	229489	3515.68000981867	1
1	229489	3515.68000981867	0
1	229794	3518.92751215827	1
1	229794	3518.92751215827	0
1	230529	3524.61847457001	1
1	230529	3524.61847457001	0
1	230957	3528.6251959203	1
1	230957	3528.6251959203	0
1	231134	3531.33874614083	1
1	231134	3531.33874614083	0
1	231491	3533.72855891239	1
1	231491	3533.72855891239	0
1	231809	3536.05049071411	1
1	231809	3536.05049071411	0
1	232549	3549.08876324848	1
1	232549	3549.08876324848	0
1	233144	3559.16732272901	1
1	233144	3559.16732272901	0
1	234777	3591.6429712811	1
1	234777	3591.6429712811	0
1	235132	3599.2227615642	1
1	235132	3599.2227615642	0
2	11281	62.01041589346	1.71212963425
2	11626	79.76545914393	1.71213043231
2	11800	82.2786162762	1.71213069701
2	12183	90.28980114837	1.71213216909
2	12962	188.04307977955	1.71213265488
2	14539	196.89434966273	1.71213039971
2	15141	201.22586830228	1.71213030375
2	15644	207.55465009172	1.71213040778
2	16136	210.57287436825	1.71213010688
2	16776	213.19928820049	1.71213101096
2	17749	218.11388796532	1.71213000401
2	18496	222.80130317277	1.71213040316
2	18844	224.92085578833	1.71213010989
2	19141	227.64857417404	1.71213073858
2	19445	230.57461857519	1.71213005988
2	19939	233.86847589296	1.71213022338
2	20855	239.86085412309	1.71213081057
2	21189	249.73010678804	1.71212972058
2	22106	255.80242611044	1.71213043231
2	22652	265.30165437401	1.71213156556
2	23580	273.06913354783	1.71212979124
2	24251	289.30321592582	1.71212969692
2	24446	307.95049609155	1.712130054
2	24999	357.79169318377	1.71213384261
2	25472	368.82740142968	1.71213015088
2	26906	386.17113122329	1.71213010688
2	27279	389.08082457664	1.7121317846
2	28083	394.8455234661	1.71213030375
2	28996	400.71179350563	1.71213109963
2	29777	407.34132316183	1.71213005988
2	30400	415.87248903092	1.71213062766
2	30744	421.15120384615	1.71213073858
2	31197	425.30601966002	1.71212972058
2	32916	439.23238302222	1.71212963425
2	33671	443.82852375459	1.71213081057
2	34242	453.52645414261	1.71212979124
2	35008	462.85439098653	1.7121307279
2	35327	467.44883305647	1.71212969692
2	36049	483.81056229869	1.71213351496
2	36697	502.97107875377	1.71213010989
2	37205	525.56609237809	1.712130054
2	37556	544.015331611	1.71213063088
2	37949	557.79016623915	1.71213042582
2	38251	564.383614515	1.7121317846
2	38503	568.06526350262	1.71213133869
2	38750	572.20120215798	1.71213124392
2	38954	574.80330007698	1.84823899577
2	39188	576.67678983387	1.71213032208
2	39604	578.45399959128	1.71213030375
2	40204	583.92824996353	1.71213119024
2	40438	587.51482396371	1.71213039971
2	41111	593.2070818372	1.71213015088
2	41470	595.97591114824	1.71213126166
2	41773	598.00028244982	1.71212972058
2	42145	600.62797813454	1.71213096156
2	42607	606.0906678191	1.71213276943
2	42844	609.31247185293	1.71213058764
2	43122	611.72936908339	1.71213094432
2	43781	617.10636519257	1.71213060972
2	44093	623.05548209158	1.71213069701
2	45100	628.64658206516	1.71213136159
2	45667	636.25831754923	1.71213010688
2	45871	639.0620963417	1.71213168996
2	46136	642.2111188648	1.9055351437
2	46237	643.95698649297	1.8362454462
2	46542	655.66470118119	1.71213000401
2	47627	668.93130275723	1.71213159072
2	47855	670.804854917	1.71212969692
2	48282	678.04279496477	1.71213010989
2	48851	683.10767259281	1.71212979124
2	49211	697.58296148389	1.712130054
2	49412	711.36116971623	1.7121307279
2	49753	723.65544549911	1.71213156556
2	50127	738.93074003515	1.71213292982
2	50443	745.93138886279	1.71213124392
2	51924	769.53157295385	1.7121326197
2	53276	786.8546777245	1.71213015088
2	54353	794.36478713936	1.71213030375
2	54667	796.71244223052	1.71213069701
2	55174	801.28137261258	1.71212972058
2	55903	808.08770181168	1.71213109963
2	56901	817.5559401672	1.71213062766
2	57085	820.87808176558	1.71213073858
2	57582	824.32845693825	2.98759641069
2	58047	835.09022445673	1.71213000401
2	58245	837.17794125935	1.71213010688
2	58739	840.69335832391	1.71213081057
2	60249	869.92030974405	1.712132558
2	60712	882.38714610432	1.71212979124
2	60932	887.23454300058	1.71213121047
2	61158	898.04809555286	1.71213010989
2	61732	905.98398477115	1.71212969692
2	62147	916.73145595974	1.71213042582
2	62893	930.17195613366	1.71213032208
2	64239	951.37416110791	2.34352099873
2	64542	954.96467697948	1.71213005988
2	64751	960.69469501579	1.71213015088
2	65169	966.46645630701	1.71213030375
2	65447	970.55616363742	1.71213119024
2	65826	976.72614120364	1.71213022338
2	66099	978.88386688422	1.71213058764
2	67232	996.11745438042	1.71213073858
2	67917	999.04565517436	1.71212972058
2	68923	1010.26369797042	1.71213010688
2	69650	1015.81705649789	1.71212963425
2	70076	1019.13927574865	1.71213043231
2	70498	1025.69873441557	1.71213000401
2	71162	1030.6120891085	1.71213101096
2	72083	1053.04833036149	1.71213039971
2	72800	1072.67052399594	1.71213108062
2	73266	1088.19213434225	1.71213010989
2	73534	1090.28473450573	1.71213124392
2	74287	1109.54980445877	1.7121307279
2	74984	1119.791202467	1.71213345612
2	76472	1137.48770339272	1.71212969692
2	76644	1144.37318720109	1.71213005988
2	76842	1150.13919261871	1.71213032208
2	77009	1154.35868247141	1.71213026543
2	78724	1171.96197892421	1.71213046768
2	79021	1176.50242986013	1.7121326197
2	79661	1189.86165208705	1.71213133869
2	80252	1193.77326629798	3.69520162014
2	81037	1199.82976637603	7.19836664884
2	81038	1200.08936511478	5.57493601749
2	81045	1200.48872547801	2.99968845632
2	81768	1205.86588265401	1.71213101096
2	82137	1208.26895245657	1.71213062766
2	82359	1210.42245585227	1.71212972058
2	83184	1230.34864182115	1.71213022338
2	83371	1233.33228032778	1.71213039971
2	84174	1239.15983619775	1.71212963425
2	84516	1251.22331279257	1.71213290716
2	85072	1270.26039539331	1.712130054
2	85274	1272.57099269552	1.71213119024
2	86449	1286.11830700779	1.71213010989
2	87702	1307.00942856552	1.71213121047
2	88323	1326.74487016705	1.71213042582
2	88907	1334.93919983308	1.71213026543
2	89416	1344.00490274362	1.71213032208
2	89699	1348.19041860073	1.71213094432
2	89847	1352.82649839607	1.71213005988
2	90204	1356.62998406826	1.71213015088
2	90476	1361.36484229518	1.71213063088
2	90796	1366.43965671428	1.71213046768
2	91132	1369.85393878051	1.71212969692
2	91923	1374.35005086275	1.71213293631
2	92406	1378.21716247337	1.71213058764
2	92599	1382.35630022446	1.71213010688
2	93191	1387.66111827015	1.71213062766
2	94393	1404.5627550587	1.71213138066
2	94641	1409.50334662529	1.71213022338
2	94902	1421.77050230735	1.71212963425
2	95199	1426.11500644018	1.71213060972
2	95807	1429.21791529015	1.71212979124
2	96745	1441.04602814661	1.71213000401
2	97118	1446.20784029793	1.71213119024
2	97278	1449.75716535618	1.712130054
2	97645	1459.85163536697	1.71213156556
2	98043	1465.56445139072	1.71213081057
2	98826	1482.48441287903	1.71213108062
2	98963	1485.82979061222	1.71213040316
2	99520	1503.12098886667	1.71213010989
2	100195	1514.01908933608	1.71213096156
2	100513	1523.35533394377	1.71213026543
2	101019	1527.39045622597	1.71213040778
2	101272	1536.49866764349	1.71213005988
2	101547	1539.53629583888	1.71213032208
2	101824	1543.9381177686	1.71213063088
2	102135	1548.78778110999	1.71213042582
2	102632	1553.39689699777	1.71213043231
2	103217	1559.95167426043	1.71213101096
2	104338	1574.64872811518	1.71212969692
2	105161	1582.28845095959	1.71213046768
2	106264	1594.67878730154	1.71213010688
2	106540	1597.18990674106	1.7121326197
2	106965	1604.68084945847	1.71213062766
2	107181	1606.49871559274	1.71212963425
2	107564	1610.39729371852	1.71213159072
2	108097	1620.84853754606	1.71213265488
2	108612	1628.25149404935	1.71213168996
2	108924	1630.31633895896	1.712130054
2	109337	1643.07643321135	1.71212979124
2	109797	1648.11955924647	1.71213208623
2	109982	1654.82115378303	1.71213290527
2	110860	1671.07855095799	1.71213000401
2	111267	1673.18764969342	1.71212972058
2	112213	1700.35229214459	1.71213040778
2	112839	1710.27975060943	1.71213160501
2	112977	1712.1522349751	1.71213005988
2	113164	1714.45690473503	1.71213026543
2	113902	1730.45405994013	1.7121307279
2	114049	1732.34575034524	1.71213043231
2	114500	1735.32283703189	1.71213126166
2	115513	1750.70245447235	1.71213333774
2	116727	1767.62759257528	1.71213094432
2	117073	1771.83510806962	2.17395707633
2	117851	1777.58005393708	1.71212969692
2	118461	1783.54899823749	1.71213133869
2	118694	1790.54973959107	1.71213069701
2	118880	1792.97886598307	1.71213069276
2	119720	1799.63897413735	1.71213168996
2	119873	1807.7704863276	1.71212963425
2	120139	1810.09907023507	1.71213046768
2	120474	1814.45392992493	1.71212979124
2	120910	1821.41670069265	1.71213081057
2	121402	1824.32734948264	1.71213015088
2	121774	1828.47616412403	2.83927401511
2	122197	1842.1609003759	1.71213156556
2	123458	1860.32311901606	1.712130054
2	123908	1867.86573160942	1.71213121047
2	124303	1885.8448096215	1.71213230282
2	124923	1895.71674286879	1.71213010989
2	125515	1902.32518936388	1.71212972058
2	126175	1922.88295459624	1.71213026543
2	126424	1924.57336219298	1.71213005988
2	126663	1929.60333981087	1.71213126166
2	126962	1932.41099912946	1.71213039971
2	127806	1945.71574514234	1.71213094432
2	128152	1948.8520650505	1.71213073858
2	129028	1957.22830676615	1.71212969692
2	129590	1960.64218058212	1.71213022338
2	130034	1964.01457517839	1.71213010688
2	131081	1984.50198861813	1.71213069701
2	131968	1994.14882320011	1.71212979124
2	133280	2012.20606314834	1.71213311372
2	133736	2021.0562929447	1.71213040316
2	134556	2028.40992568367	1.71213000401
2	134922	2032.91236826217	1.71213081057
2	136377	2069.84154246517	1.71213042582
2	136601	2074.71097911955	1.71213160501
2	136778	2077.3646665647	1.71213109963
2	136916	2079.34255230764	1.71212972058
2	137133	2083.94281866917	1.71213063088
2	137324	2087.07891825663	1.71213121047
2	138025	2107.71017201388	1.71213010989
2	138791	2122.63318789176	1.71213094432
2	139133	2125.93464550572	1.71213095212
2	140006	2137.04863997496	1.7121326197
2	140332	2141.37299620852	1.71213030375
2	140667	2145.96382358987	1.71213010688
2	140909	2148.33259997797	1.71213026543
2	141208	2153.81498446182	1.7121307279
2	141706	2157.78951691011	2.96503564721
2	142173	2166.87451579236	1.71213069276
2	142810	2174.68141879782	2.59551681089
2	143078	2178.72079510765	3.88855803762
2	143466	2182.8577944967	1.71213032208
2	145174	2199.84149137209	1.71213039971
2	145505	2202.49323732043	1.71213000401
2	145866	2205.20041851929	1.71213015088
2	146347	2209.54768059975	1.71212979124
2	146536	2214.68407204575	1.71213069701
2	146907	2216.99467585564	1.71213168996
2	147233	2223.80669593761	1.71213081057
2	147750	2237.77115829174	1.71213119024
2	147989	2241.79243071915	1.712130054
2	149420	2262.8820367891	1.71213410901
2	149638	2271.47350319828	1.71212972058
2	150742	2302.96950844124	1.71213094432
2	150905	2305.70456800624	1.71213010989
2	151121	2309.89715449744	1.71213133861
2	151301	2312.68306047314	1.71213126166
2	151562	2318.48152248647	1.71213073858
2	152527	2327.04124968393	1.71212969692
2	152972	2331.46461725099	1.7121307279
2	153476	2338.58122178326	1.7121327574
2	156289	2379.60044460764	1.71212963425
2	156670	2382.58733987538	1.9259889955
2	157203	2391.91807666991	1.71213265488
2	157664	2394.29596218584	1.71213083374
2	158035	2397.17401696896	2.08222112188
2	159087	2410.01235140161	1.71213058764
2	159741	2418.96139401889	1.71213000401
2	160538	2434.65063884566	1.71213119024
2	160780	2444.13509035956	1.71213040778
2	161023	2449.04719535095	1.71213069701
2	161593	2454.2970130511	1.71212972058
2	161969	2470.00572959517	1.71213063088
2	162280	2476.72840378344	1.71213042582
2	162703	2479.63888424946	1.71213010989
2	163239	2486.03533423464	1.71213109963
2	163820	2498.64771132023	1.71213126166
2	163966	2504.00628367555	1.71213005988
2	164692	2513.72947933848	1.71213276943
2	165569	2526.31347699359	1.7121307279
2	165983	2532.61131223182	1.71213032208
2	166418	2536.46671620265	1.71213133869
2	167130	2544.62257979758	1.71213069276
2	167475	2553.67650728118	1.71212969692
2	167646	2556.25659007053	1.71212963425
2	167996	2565.06842728363	1.71213043231
2	168272	2568.10518981025	1.71213015088
2	168677	2571.3940936696	1.71213083374
2	169912	2586.0063073271	1.71213081057
2	170697	2593.16680783322	1.71213000401
2	170879	2594.82174802815	1.71212979124
2	171007	2596.53043596596	1.71213010688
2	171192	2600.97823933446	1.712130054
2	171393	2603.04135157924	1.71213060972
2	172809	2628.60748352471	1.71212972058
2	173536	2643.24518894378	1.71213290716
2	173719	2645.99148231766	1.71213160501
2	174692	2659.28960645062	1.71213121047
2	175035	2662.89771981254	1.71213095212
2	175295	2667.61914621146	1.71213094432
2	175531	2672.91047826703	1.71213010989
2	175902	2678.15373356943	1.71213126166
2	176243	2685.0646205667	1.71213109963
2	176505	2692.80284795079	1.71213073858
2	176887	2699.77231391644	1.71213026543
2	177410	2710.91791932736	1.71213030375
2	177605	2712.7677073184	1.71213166278
2	177920	2717.56678102564	1.71213032208
2	178258	2725.75470839164	1.71213069276
2	178626	2730.1582492166	1.71213136159
2	178845	2733.0851653779	1.71212963425
2	179194	2739.28281843001	1.71213043231
2	179459	2744.09202605905	1.71212969692
2	180828	2760.61295309137	1.71213046768
2	181477	2769.28177274561	1.71213309164
2	181637	2771.41510912566	1.71213015088
2	181895	2774.25113656183	1.71213081057
2	182297	2777.9476153444	1.71213039971
2	182639	2781.97036537832	1.71212979124
2	183554	2789.82366017976	1.71213000401
2	184101	2798.06594102028	1.71213119024
2	184318	2800.13053511953	1.71213069701
2	185920	2829.53607442875	1.71213042582
2	186311	2832.67899810081	1.71213121047
2	186502	2836.82633181115	1.71213156556
2	186718	2844.6395661372	1.71212972058
2	187479	2865.87918690441	1.71213005988
2	188818	2886.0459297757	1.71213030375
2	189286	2892.45563268601	1.71213313488
2	189843	2899.56667610245	1.71213032208
2	190207	2904.2258534318	1.71213136159
2	190506	2907.79081120099	1.71213026543
2	190706	2911.99030741754	1.712130054
2	191071	2920.34101357678	1.71213230282
2	191409	2924.17541292489	2.78438737774
2	191905	2935.74577514497	1.7121307279
2	192058	2937.73198717268	1.71212969692
2	192811	2946.70540506287	1.71213081057
2	193247	2955.73503930722	1.71213062766
2	193512	2958.99046003735	2.71213048966
2	193983	2963.34636955554	1.71213083374
2	194227	2965.81993215819	1.71212963425
2	195364	2981.06205398579	1.71213000401
2	196203	2986.39825591736	1.71213096156
2	196357	2988.55098087711	1.71213040316
2	197377	3006.64703402848	1.71213108062
2	197764	3009.30809329713	1.71212979124
2	198095	3012.56534492879	1.71213297168
2	198699	3020.40456598033	1.71213121047
2	199122	3039.02543230825	1.71213133861
2	200216	3062.48290791612	1.71213005988
2	200890	3074.02811800323	1.71213032208
2	201137	3079.30440143456	1.71213042582
2	201725	3084.63665860008	1.712130054
2	201924	3089.2447501688	1.71213030375
2	202118	3092.19329674183	1.71213126166
2	202420	3100.58974242958	1.71213026543
2	203812	3114.31349024119	1.7121307279
2	204257	3123.6603095486	1.71213159072
2	204563	3130.07143924167	1.71212969692
2	205912	3147.2631910606	1.71213069276
2	206477	3160.106045194	1.71213040316
2	207243	3163.85270732876	1.71213062766
2	207396	3165.84536616567	1.71213022338
2	207585	3172.83463189063	1.71212963425
2	208394	3178.78083402208	1.71213069701
2	208836	3180.7932108583	1.71213015088
2	209328	3186.33287199798	1.71212979124
2	209593	3188.4335494672	1.71213046768
2	209763	3190.33828025177	1.71212972058
2	210191	3212.80085753575	1.71213000401
2	210487	3215.80931768479	1.71213156556
2	210749	3219.77405806478	1.71213073858
2	211009	3222.69667853929	1.71213208623
2	211195	3225.24527442124	1.71213121047
2	211989	3234.63115601316	1.71213040778
2	212413	3246.89184176359	1.71213032208
2	213671	3260.43890508954	1.71213261389
2	214514	3288.85418343563	1.7121307279
2	214780	3291.97226913615	1.71213109963
2	215120	3297.50409738152	1.71213126166
2	215819	3307.38383783037	1.71212969692
2	216266	3309.13983220226	1.71213159072
2	216670	3311.48476439195	1.71213010688
2	217197	3321.74691197283	1.71213083374
2	218394	3339.30656723578	1.71213040316
2	218913	3343.00797781208	1.71213081057
2	219402	3347.14562630814	1.71213039971
2	221459	3371.93229292282	1.71213015088
2	222243	3388.22585138112	1.71213280775
2	222990	3404.79416098018	1.71213121047
2	223281	3408.40068300238	1.71212972058
2	223964	3426.95074305287	1.71213124392
2	224122	3428.79948322922	1.71213042582
2	225549	3459.53052685617	1.71213005988
2	225851	3462.66507340441	3.00478433745
2	226612	3480.81868704236	3.18502139225
2	226835	3481.84014674639	1.71212969692
2	227347	3486.95679664113	1.71213010688
2	229489	3515.68000981867	1.71213313488
2	229794	3518.92751215827	1.71213039971
2	230529	3524.61847457001	1.71213040316
2	230957	3528.6251959203	1.71213069276
2	231134	3531.33874614083	1.71213022338
2	231491	3533.72855891239	1.71213081057
2	231809	3536.05049071411	1.71212963425
2	232549	3549.08876324848	1.71212979124
2	233144	3559.16732272901	1.71213046768
2	234777	3591.6429712811	1.71213123909
2	235132	3599.2227615642	1.71213121047
3	11281	62.01041589346	1.71212963425
3	11626	79.76545914393	1.71213043231
3	11800	82.2786162762	1.71213069701
3	12183	90.28980114837	1.71213216909
3	12962	188.04307977955	1.71213265488
3	14539	196.89434966273	1.71213039971
3	15141	201.22586830228	1.71213030375
3	15644	207.55465009172	1.71213040778
3	16136	210.57287436825	1.71213010688
3	16776	213.19928820049	1.71213101096
3	17749	218.11388796532	1.71213000401
3	18496	222.80130317277	1.71213040316
3	18844	224.92085578833	1.71213010989
3	19141	227.64857417404	1.71213073858
3	19445	230.57461857519	1.71213005988
3	19939	233.86847589296	1.71213022338
3	20855	239.86085412309	1.71213081057
3	21189	249.73010678804	1.71212972058
3	22106	255.80242611044	1.71213043231
3	22652	265.30165437401	1.71213156556
3	23580	273.06913354783	1.71212979124
3	24251	289.30321592582	1.71212969692
3	24446	307.95049609155	1.712130054
3	24999	357.79169318377	1.71213384261
3	25472	368.82740142968	1.71213015088
3	26906	386.17113122329	1.71213010688
3	27279	389.08082457664	1.7121317846
3	28083	394.8455234661	1.71213030375
3	28996	400.71179350563	1.71213109963
3	29777	407.34132316183	1.71213005988
3	30400	415.87248903092	1.71213062766
3	30744	421.15120384615	1.71213073858
3	31197	425.30601966002	1.71212972058
3	32916	439.23238302222	1.71212963425
3	33671	443.82852375459	1.71213081057
3	34242	453.52645414261	1.71212979124
3	35008	462.85439098653	1.7121307279
3	35327	467.44883305647	1.71212969692
3	36049	483.81056229869	1.71213351496
3	36697	502.97107875377	1.71213010989
3	37205	525.56609237809	1.712130054
3	37556	544.015331611	1.71213063088
3	37949	557.79016623915	1.71213042582
3	38251	564.383614515	1.7121317846
3	38503	568.06526350262	1.71213133869
3	38750	572.20120215798	1.71213124392
3	38954	574.80330007698	1.84823899577
3	39188	576.67678983387	1.71213032208
3	39604	578.45399959128	1.71213030375
3	40204	583.92824996353	1.71213119024
3	40438	587.51482396371	1.71213039971
3	41111	593.2070818372	1.71213015088
3	41470	595.97591114824	1.71213126166
3	41773	598.00028244982	1.71212972058
3	42145	600.62797813454	1.71213096156
3	42607	606.0906678191	1.71213276943
3	42844	609.31247185293	1.71213058764
3	43122	611.72936908339	1.71213094432
3	43781	617.10636519257	1.71213060972
3	44093	623.05548209158	1.71213069701
3	45100	628.64658206516	1.71213136159
3	45667	636.25831754923	1.71213010688
3	45871	639.0620963417	1.71213168996
3	46136	642.2111188648	1.9055351437
3	46237	643.95698649297	1.8362454462
3	46542	655.66470118119	1.71213000401
3	47627	668.93130275723	1.71213159072
3	47855	670.804854917	1.71212969692
3	48282	678.04279496477	1.71213010989
3	48851	683.10767259281	1.71212979124
3	49211	697.58296148389	1.712130054
3	49412	711.36116971623	1.7121307279
3	49753	723.65544549911	1.71213156556
3	50127	738.93074003515	1.71213292982
3	50443	745.93138886279	1.71213124392
3	51924	769.53157295385	1.7121326197
3	53276	786.8546777245	1.71213015088
3	54353	794.36478713936	1.71213030375
3	54667	796.71244223052	1.71213069701
3	55174	801.28137261258	1.71212972058
3	55903	808.08770181168	1.71213109963
3	56901	817.5559401672	1.71213062766
3	57085	820.87808176558	1.71213073858
3	57582	824.32845693825	2.98759641069
3	58047	835.09022445673	1.71213000401
3	58245	837.17794125935	1.71213010688
3	58739	840.69335832391	1.71213081057
3	60249	869.92030974405	1.712132558
3	60712	882.38714610432	1.71212979124
3	60932	887.23454300058	1.71213121047
3	61158	898.04809555286	1.71213010989
3	61732	905.98398477115	1.71212969692
3	62147	916.73145595974	1.71213042582
3	62893	930.17195613366	1.71213032208
3	64239	951.37416110791	2.34352099873
3	64542	954.96467697948	1.71213005988
3	64751	960.69469501579	1.71213015088
3	65169	966.46645630701	1.71213030375
3	65447	970.55616363742	1.71213119024
3	65826	976.72614120364	1.71213022338
3	66099	978.88386688422	1.71213058764
3	67232	996.11745438042	1.71213073858
3	67917	999.04565517436	1.71212972058
3	68923	1010.26369797042	1.71213010688
3	69650	1015.81705649789	1.71212963425
3	70076	1019.13927574865	1.71213043231
3	70498	1025.69873441557	1.71213000401
3	71162	1030.6120891085	1.71213101096
3	72083	1053.04833036149	1.71213039971
3	72800	1072.67052399594	1.71213108062
3	73266	1088.19213434225	1.71213010989
3	73534	1090.28473450573	1.71213124392
3	74287	1109.54980445877	1.7121307279
3	74984	1119.791202467	1.71213345612
3	76472	1137.48770339272	1.71212969692
3	76644	1144.37318720109	1.71213005988
3	76842	1150.13919261871	1.71213032208
3	77009	1154.35868247141	1.71213026543
3	78724	1171.96197892421	1.71213046768
3	79021	1176.50242986013	1.7121326197
3	79661	1189.86165208705	1.71213133869
3	80252	1193.77326629798	3.69520162014
3	81037	1199.82976637603	7.19836664884
3	81038	1200.08936511478	5.57493601749
3	81045	1200.48872547801	2.99968845632
3	81768	1205.86588265401	1.71213101096
3	82137	1208.26895245657	1.71213062766
3	82359	1210.42245585227	1.71212972058
3	83184	1230.34864182115	1.71213022338
3	83371	1233.33228032778	1.71213039971
3	84174	1239.15983619775	1.71212963425
3	84516	1251.22331279257	1.71213290716
3	85072	1270.26039539331	1.712130054
3	85274	1272.57099269552	1.71213119024
3	86449	1286.11830700779	1.71213010989
3	87702	1307.00942856552	1.71213121047
3	88323	1326.74487016705	1.71213042582
3	88907	1334.93919983308	1.71213026543
3	89416	1344.00490274362	1.71213032208
3	89699	1348.19041860073	1.71213094432
3	89847	1352.82649839607	1.71213005988
3	90204	1356.62998406826	1.71213015088
3	90476	1361.36484229518	1.71213063088
3	90796	1366.43965671428	1.71213046768
3	91132	1369.85393878051	1.71212969692
3	91923	1374.35005086275	1.71213293631
3	92406	1378.21716247337	1.71213058764
3	92599	1382.35630022446	1.71213010688
3	93191	1387.66111827015	1.71213062766
3	94393	1404.5627550587	1.71213138066
3	94641	1409.50334662529	1.71213022338
3	94902	1421.77050230735	1.71212963425
3	95199	1426.11500644018	1.71213060972
3	95807	1429.21791529015	1.71212979124
3	96745	1441.04602814661	1.71213000401
3	97118	1446.20784029793	1.71213119024
3	97278	1449.75716535618	1.712130054
3	97645	1459.85163536697	1.71213156556
3	98043	1465.56445139072	1.71213081057
3	98826	1482.48441287903	1.71213108062
3	98963	1485.82979061222	1.71213040316
3	99520	1503.12098886667	1.71213010989
3	100195	1514.01908933608	1.71213096156
3	100513	1523.35533394377	1.71213026543
3	101019	1527.39045622597	1.71213040778
3	101272	1536.49866764349	1.71213005988
3	101547	1539.53629583888	1.71213032208
3	101824	1543.9381177686	1.71213063088
3	102135	1548.78778110999	1.71213042582
3	102632	1553.39689699777	1.71213043231
3	103217	1559.95167426043	1.71213101096
3	104338	1574.64872811518	1.71212969692
3	105161	1582.28845095959	1.71213046768
3	106264	1594.67878730154	1.71213010688
3	106540	1597.18990674106	1.7121326197
3	106965	1604.68084945847	1.71213062766
3	107181	1606.49871559274	1.71212963425
3	107564	1610.39729371852	1.71213159072
3	108097	1620.84853754606	1.71213265488
3	108612	1628.25149404935	1.71213168996
3	108924	1630.31633895896	1.712130054
3	109337	1643.07643321135	1.71212979124
3	109797	1648.11955924647	1.71213208623
3	109982	1654.82115378303	1.71213290527
3	110860	1671.07855095799	1.71213000401
3	111267	1673.18764969342	1.71212972058
3	112213	1700.35229214459	1.71213040778
3	112839	1710.27975060943	1.71213160501
3	112977	1712.1522349751	1.71213005988
3	113164	1714.45690473503	1.71213026543
3	113902	1730.45405994013	1.7121307279
3	114049	1732.34575034524	1.71213043231
3	114500	1735.32283703189	1.71213126166
3	115513	1750.70245447235	1.71213333774
3	116727	1767.62759257528	1.71213094432
3	117073	1771.83510806962	2.17395707633
3	117851	1777.58005393708	1.71212969692
3	118461	1783.54899823749	1.71213133869
3	118694	1790.54973959107	1.71213069701
3	118880	1792.97886598307	1.71213069276
3	119720	1799.63897413735	1.71213168996
3	119873	1807.7704863276	1.71212963425
3	120139	1810.09907023507	1.71213046768
3	120474	1814.45392992493	1.71212979124
3	120910	1821.41670069265	1.71213081057
3	121402	1824.32734948264	1.71213015088
3	121774	1828.47616412403	2.83927401511
3	122197	1842.1609003759	1.71213156556
3	123458	1860.32311901606	1.712130054
3	123908	1867.86573160942	1.71213121047
3	124303	1885.8448096215	1.71213230282
3	124923	1895.71674286879	1.71213010989
3	125515	1902.32518936388	1.71212972058
3	126175	1922.88295459624	1.71213026543
3	126424	1924.57336219298	1.71213005988
3	126663	1929.60333981087	1.71213126166
3	126962	1932.41099912946	1.71213039971
3	127806	1945.71574514234	1.71213094432
3	128152	1948.8520650505	1.71213073858
3	129028	1957.22830676615	1.71212969692
3	129590	1960.64218058212	1.71213022338
3	130034	1964.01457517839	1.71213010688
3	131081	1984.50198861813	1.71213069701
3	131968	1994.14882320011	1.71212979124
3	133280	2012.20606314834	1.71213311372
3	133736	2021.0562929447	1.71213040316
3	134556	2028.40992568367	1.71213000401
3	134922	2032.91236826217	1.71213081057
3	136377	2069.84154246517	1.71213042582
3	136601	2074.71097911955	1.71213160501
3	136778	2077.3646665647	1.71213109963
3	136916	2079.34255230764	1.71212972058
3	137133	2083.94281866917	1.71213063088
3	137324	2087.07891825663	1.71213121047
3	138025	2107.71017201388	1.71213010989
3	138791	2122.63318789176	1.71213094432
3	139133	2125.93464550572	1.71213095212
3	140006	2137.04863997496	1.7121326197
3	140332	2141.37299620852	1.71213030375
3	140667	2145.96382358987	1.71213010688
3	140909	2148.33259997797	1.71213026543
3	141208	2153.81498446182	1.7121307279
3	141706	2157.78951691011	2.96503564721
3	142173	2166.87451579236	1.71213069276
3	142810	2174.68141879782	2.59551681089
3	143078	2178.72079510765	3.88855803762
3	143466	2182.8577944967	1.71213032208
3	145174	2199.84149137209	1.71213039971
3	145505	2202.49323732043	1.71213000401
3	145866	2205.20041851929	1.71213015088
3	146347	2209.54768059975	1.71212979124
3	146536	2214.68407204575	1.71213069701
3	146907	2216.99467585564	1.71213168996
3	147233	2223.80669593761	1.71213081057
3	147750	2237.77115829174	1.71213119024
3	147989	2241.79243071915	1.712130054
3	149420	2262.8820367891	1.71213410901
3	149638	2271.47350319828	1.71212972058
3	150742	2302.96950844124	1.71213094432
3	150905	2305.70456800624	1.71213010989
3	151121	2309.89715449744	1.71213133861
3	151301	2312.68306047314	1.71213126166
3	151562	2318.48152248647	1.71213073858
3	152527	2327.04124968393	1.71212969692
3	152972	2331.46461725099	1.7121307279
3	153476	2338.58122178326	1.7121327574
3	156289	2379.60044460764	1.71212963425
3	156670	2382.58733987538	1.9259889955
3	157203	2391.91807666991	1.71213265488
3	157664	2394.29596218584	1.71213083374
3	158035	2397.17401696896	2.08222112188
3	159087	2410.01235140161	1.71213058764
3	159741	2418.96139401889	1.71213000401
3	160538	2434.65063884566	1.71213119024
3	160780	2444.13509035956	1.71213040778
3	161023	2449.04719535095	1.71213069701
3	161593	2454.2970130511	1.71212972058
3	161969	2470.00572959517	1.71213063088
3	162280	2476.72840378344	1.71213042582
3	162703	2479.63888424946	1.71213010989
3	163239	2486.03533423464	1.71213109963
3	163820	2498.64771132023	1.71213126166
3	163966	2504.00628367555	1.71213005988
3	164692	2513.72947933848	1.71213276943
3	165569	2526.31347699359	1.7121307279
3	165983	2532.61131223182	1.71213032208
3	166418	2536.46671620265	1.71213133869
3	167130	2544.62257979758	1.71213069276
3	167475	2553.67650728118	1.71212969692
3	167646	2556.25659007053	1.71212963425
3	167996	2565.06842728363	1.71213043231
3	168272	2568.10518981025	1.71213015088
3	168677	2571.3940936696	1.71213083374
3	169912	2586.0063073271	1.71213081057
3	170697	2593.16680783322	1.71213000401
3	170879	2594.82174802815	1.71212979124
3	171007	2596.53043596596	1.71213010688
3	171192	2600.97823933446	1.712130054
3	171393	2603.04135157924	1.71213060972
3	172809	2628.60748352471	1.71212972058
3	173536	2643.24518894378	1.71213290716
3	173719	2645.99148231766	1.71213160501
3	174692	2659.28960645062	1.71213121047
3	175035	2662.89771981254	1.71213095212
3	175295	2667.61914621146	1.71213094432
3	175531	2672.91047826703	1.71213010989
3	175902	2678.15373356943	1.71213126166
3	176243	2685.0646205667	1.71213109963
3	176505	2692.80284795079	1.71213073858
3	176887	2699.77231391644	1.71213026543
3	177410	2710.91791932736	1.71213030375
3	177605	2712.7677073184	1.71213166278
3	177920	2717.56678102564	1.71213032208
3	178258	2725.75470839164	1.71213069276
3	178626	2730.1582492166	1.71213136159
3	178845	2733.0851653779	1.71212963425
3	179194	2739.28281843001	1.71213043231
3	179459	2744.09202605905	1.71212969692
3	180828	2760.61295309137	1.71213046768
3	181477	2769.28177274561	1.71213309164
3	181637	2771.41510912566	1.71213015088
3	181895	2774.25113656183	1.71213081057
3	182297	2777.9476153444	1.71213039971
3	182639	2781.97036537832	1.71212979124
3	183554	2789.82366017976	1.71213000401
3	184101	2798.06594102028	1.71213119024
3	184318	2800.13053511953	1.71213069701
3	185920	2829.53607442875	1.71213042582
3	186311	2832.67899810081	1.71213121047
3	186502	2836.82633181115	1.71213156556
3	186718	2844.6395661372	1.71212972058
3	187479	2865.87918690441	1.71213005988
3	188818	2886.0459297757	1.71213030375
3	189286	2892.45563268601	1.71213313488
3	189843	2899.56667610245	1.71213032208
3	190207	2904.2258534318	1.71213136159
3	190506	2907.79081120099	1.71213026543
3	190706	2911.99030741754	1.712130054
3	191071	2920.34101357678	1.71213230282
3	191409	2924.17541292489	2.78438737774
3	191905	2935.74577514497	1.7121307279
3	192058	2937.73198717268	1.71212969692
3	192811	2946.70540506287	1.71213081057
3	193247	2955.73503930722	1.71213062766
3	193512	2958.99046003735	2.71213048966
3	193983	2963.34636955554	1.71213083374
3	194227	2965.81993215819	1.71212963425
3	195364	2981.06205398579	1.71213000401
3	196203	2986.39825591736	1.71213096156
3	196357	2988.55098087711	1.71213040316
[...]
53	52087	771.63927620398	227.20125974551
53	64329	953.2525469196	662.16854772515
53	76513	1142.66105714121	1139.2397900089
53	89713	1351.11436833619	2123.2907771744
53	101063	1534.78653758361	740.10568277361
53	112842	1710.44010491522	948.69718347692
53	126041	1922.8612321331	139.00151816994
53	139230	2131.26826696727	624.09464682346
53	151960	2322.02825150618	16.286801249048
53	163833	2502.29415361567	1230.9378077032
53	176335	2692.30889302287	238.69028262009
53	187271	2864.16705684453	93.312408691331
53	199929	3060.77077785624	297.78195099696
53	212764	3255.40536254871	501.58106415871
53	225340	3457.81839679629	88.67943521757
54	19234	229.40608339257	305.10528037976
54	30405	416.09432388209	169.09983691418
54	40482	588.87564669385	418.70667623797
54	51589	760.15765423656	820.94984033985
54	63176	939.54540740547	136.52680752381
54	77776	1160.37905205913	77.185974644773
54	89036	1341.8051541093	1159.9688180726
54	100301	1523.00228431957	730.61275526173
54	111830	1695.31383768576	574.40410108164
54	130389	1969.16381925233	980.49505257222
54	146923	2220.72768415555	204.08460933158
54	159970	2428.76443607197	55.66755208028
54	172857	2630.4347849156	58.547890160025
54	185169	2824.9975150176	439.61945730306
54	196578	3002.12432088037	464.15684363245
54	208677	3180.5646726227	58.846049182777
54	221808	3385.5759581238	185.68218484443
54	233333	3560.75897337467	62.932415305379
55	19313	230.445862272	808.41654588026
55	30987	424.57498853845	160.23760185562
55	41974	598.91584717298	1757.3888393836
55	52165	771.85700761943	537.61456530211
55	63572	947.25188623721	41.916461358575
55	74990	1121.96556651281	36.753963985114
55	87878	1321.19717094971	147.3792402872
55	99880	1512.30695837452	735.24504768514
55	111409	1685.74280290539	56.393334216225
55	124701	1894.05883390937	1471.9864637678
55	138231	2112.92547512238	101.79302892251
55	154530	2357.31148605728	632.89197005625
55	168115	2566.74236786901	539.43273469559
55	183421	2789.64865780265	52.460609218273
55	195732	2984.6861249558	152.13222534653
55	206269	3158.71534058557	183.20935285777
55	219440	3347.44799149264	124.93517100768
55	233493	3562.59002759637	23.625859909123
56	19567	231.30144722075	40.868701161788
56	29643	406.64400401707	134.78018621673
56	43297	615.30175120823	2121.8902526769
56	55220	801.76702760919	130.93122036526
56	65616	975.53425441649	874.09711010392
56	79755	1191.31636859727	586.28451611039
56	91166	1369.86668173287	315.01033671791
56	102003	1548.50400703251	157.94542531891
56	114251	1734.68490679952	638.33035423553
56	132926	2009.74931617545	103.74391456591
56	143241	2181.50003066687	956.74092365986
56	154046	2355.53674730869	729.43104588135
56	166249	2535.13263775002	154.93061887589
56	180209	2756.39362688947	247.92381191584
56	193334	2957.45159975861	273.38358749247
56	208102	3177.07584180767	592.1245694848
56	223499	3416.05619133962	701.63634007979
57	19650	232.15634566958	92.464615529341
57	32785	439.14263214878	78.935672079352
57	44608	626.74772784351	80.736720670854
57	55535	803.71551498708	18.581151213574
57	65538	975.01401098026	509.33135710863
57	82975	1228.63651159777	561.27523163387
57	94428	1407.79121640191	347.04751331722
57	104556	1580.28187669753	216.63526687716
57	117709	1776.93705047702	1144.674171901
57	129299	1958.93005035874	2292.4718832536
57	144235	2189.44456800162	784.76944359021
57	155525	2373.51548389507	779.50531064349
57	169269	2577.42393069309	432.3761203186
57	182080	2776.88658708557	211.82799318319
57	194673	2976.19398320736	2318.5873909616
57	207254	3164.13323594229	255.2152949446
57	219020	3344.48884683969	1606.5168988235
57	230994	3529.62661591745	2232.8460910373
58	19987	234.73573888705	478.37464954462
58	31066	424.98320699839	46.085572526735
58	42251	604.37853504967	1041.7697896435
58	53378	788.39418526712	32.276967357426
58	66126	979.54731702842	1065.886600475
58	76872	1152.64655220598	1332.8731019151
58	88692	1333.22706956765	1174.4406067293
58	100223	1521.64320367834	1100.2650751027
58	113021	1712.7447744696	696.75781806598
58	125805	1921.17082433081	616.56277809848
58	140691	2146.62046971254	137.35345030132
58	151881	2321.82265313105	1224.0907370178
58	164487	2512.01734656905	800.17496426081
58	176752	2698.06018365101	83.923900241473
58	190293	2906.07868093556	568.40075811891
58	202209	3098.87761216415	257.58403821889
58	215215	3304.18638253348	335.23873519059
58	231176	3531.46021610729	1610.079000651
59	20075	236.35737407885	844.07226468624
59	32627	438.35786856239	25.014447580355
59	42873	610.01723813907	274.56498792892
59	53538	789.63806727234	150.43079954824
59	65012	965.42727061972	328.0299662394
59	77052	1156.4734525917	100.97623120924
59	89526	1346.47828765641	690.6136856541
59	100632	1524.78931156114	1297.1534980451
59	116560	1765.91546163096	325.76269748526
59	127485	1944.00361419802	55.032030669604
59	138471	2120.92105694744	245.74046188753
59	150422	2301.25737749692	597.15567059923
59	162486	2478.86603283245	733.48877700394
59	175048	2665.90701526714	173.39436696335
59	187689	2871.3611511511	388.72488345554
59	199368	3046.68125979968	427.7022100101
59	214011	3279.26672326428	1089.0419534805
59	228094	3501.56769837635	519.87360568646
60	20230	236.49450993223	1407.8286836031
60	36215	491.09708219698	424.35201111112
60	47896	672.13581918673	1249.9985337244
60	60758	885.52241179011	1497.6056372074
60	73966	1106.05670784391	220.04595623673
60	87450	1305.29729735505	899.57628700055
60	99800	1511.56171615382	295.5957459241
60	111331	1684.20575457541	78.94719325598
60	123659	1866.15360039895	278.33376983924
60	137149	2085.36678704616	403.45112749152
60	149057	2257.92669894514	1023.8264558574
60	161654	2467.96181940058	63.304406010081
60	174433	2657.57747524015	97.532757143116
60	186052	2830.96686689034	84.967194594005
60	198444	3018.69243476986	302.90073901586
60	211014	3223.53314321077	150.77836722406
60	222815	3403.08202976971	725.06378591985
60	234959	3597.51063035373	1170.2483776787
61	20314	237.94849052072	310.39869306967
61	31879	429.84201999129	10.306467719669
61	43533	616.16859226803	76.235492696038
61	54196	794.28556266696	601.35884448272
61	68616	1009.022325332	1509.2321833405
61	82575	1217.64908108455	359.16569647172
61	94249	1402.85062367804	1076.5799567629
61	105434	1584.13579532657	907.11757372455
61	122756	1848.86621646986	360.1042045832
61	134105	2025.27424565131	396.35608321844
61	145711	2204.56329110767	45.771011498819
61	158295	2405.77532603235	1260.5940287029
61	171962	2616.23963476463	3238.1161037276
61	183930	2797.15387697763	593.99396291513
61	202131	3097.66895873742	1.5803359778448
61	217230	3322.5595521296	973.317190723
61	227940	3500.28931894743	799.93197243504
62	20468	238.14872331252	2826.5346839972
62	33434	442.11639294402	783.61948061085
62	43215	613.64963661734	19.386922715288
62	58428	838.98122751334	196.9479837495
62	74381	1111.8445826947	146.52367988345
62	86002	1283.70471127397	1532.0566897224
62	97811	1463.85232058015	646.63063371079
62	109204	1642.85038803439	165.31369054754
62	120681	1819.70456988208	1007.5780145879
62	134762	2031.2002374516	1005.9389780487
62	147003	2222.09456512704	385.47583572176
62	158451	2406.43649364088	18.119318159435
62	169682	2584.29417651653	2027.2571736531
62	181660	2772.53900575126	456.54583222334
62	192575	2944.9932742523	184.97104210181
62	205156	3137.97864157786	22.729796358612
62	218603	3341.29584700151	1583.2723456649
62	231255	3532.01642810182	73.194299819521
63	20624	239.11596735838	323.89598354989
63	30150	414.16035840326	875.86593098954
63	41637	597.20154069551	983.29068046141
63	56728	815.84380953954	123.38851392525
63	71013	1029.00692476058	87.470518460416
63	81800	1206.55682182891	778.57985408091
63	92938	1385.94898764249	759.67976863937
63	106715	1602.96871883081	681.36937301844
63	119312	1797.30383423249	78.322538502634
63	131362	1990.28444661201	1035.2861353727
63	144631	2192.81310250487	1054.3962914301
63	158373	2406.28928069633	425.80452293427
63	169348	2577.7557226748	424.98492640728
63	180605	2759.59762548697	489.36040252355
63	193002	2954.02290867956	2671.7209385484
63	206988	3162.1405767011	1258.4060280543
63	217874	3335.12562500989	464.91412630798
63	232107	3547.32072259479	2650.4880128711
64	20982	248.01797706746	257.80175131013
64	30832	423.59388993944	605.70060587373
64	41474	596.28815272924	950.29249286681
64	54803	799.569242892	301.06797966803
64	67477	997.33352545378	2544.5469020216
64	82220	1208.71032613169	285.19534098237
64	96182	1433.33813496353	22.167663084473
64	110981	1671.47551997284	1375.3199559425
64	125304	1900.6130596433	167.20796780911
64	136781	2077.63042258706	248.72832457716
64	149431	2269.7613734777	597.79356237322
64	161381	2452.58488333052	216.4555883221
64	172676	2626.89535380413	2132.2211547309
64	186511	2842.92743641662	333.25646967633
64	198108	3015.03586764492	17.646843393012
64	209627	3188.62615053119	273.62836262502
64	223073	3406.6885532818	544.51732103112
65	21060	249.42258214204	475.7071172327
65	30751	422.08596240284	126.52346278643
65	44530	626.26943062572	23.477382516026
65	54717	797.96662175699	885.80817203211
65	67059	995.16049005589	545.79505695893
65	78191	1167.59785503915	188.36841133968
65	89192	1342.47266080931	608.54804240564
65	102416	1552.25988081749	276.17677216846
65	115231	1748.99032113461	1772.2017231741
65	126668	1930.68991158613	636.77126915202
65	140095	2139.74165284276	365.69798275929
65	157284	2392.5838313521	956.75053025956
65	168452	2569.68196283586	170.97652363671
65	182158	2777.14645296599	1623.7589787231
65	193753	2961.6342387218	1352.3075568618
65	205948	3148.45219254205	1385.1498971543
65	217047	3320.03478113909	545.1684344554
65	227862	3499.46320468218	492.55781665574
66	21234	249.96987767715	238.72219899873
66	32706	438.69158452246	751.39165617529
66	44213	623.31851002571	679.2130570423
66	54967	800.74609183466	1349.5967929271
66	68303	1006.78378043516	128.78036284731
66	79033	1186.45206359892	1494.4140611687
66	92624	1382.9583734366	62.698908300909
66	103255	1561.28274446117	75.567390324733
66	115309	1749.00732263014	139.38141063511
66	128321	1951.17845116192	864.72402375029
66	141295	2154.86950719214	747.5859333316
66	153072	2335.94591648919	1105.5936110666
66	164250	2508.5946029684	942.62257860867
66	177429	2711.05557565562	818.97860381835
66	189450	2894.66932470583	75.620675135408
66	202628	3105.22014727468	44.477522849614
66	215371	3304.69797108198	633.05387274393
66	228805	3509.78945421053	569.6476954583
67	21625	252.3379605839	320.94360212069
67	31965	430.87226250598	38.31954932973
67	42691	607.60034126529	1610.9165856351
67	55045	801.02019129618	419.1512348985
67	65868	977.17173629658	1825.0855393802
67	78020	1162.76545053546	180.84695042143
67	92095	1376.50503188573	232.77518340221
67	104478	1579.30597990814	358.42750664466
67	116740	1769.66115099329	476.83772980109
67	132489	1997.73143996449	1066.7508522589
67	142552	2172.08590198693	1180.5843880448
67	158855	2408.30022081397	440.50718064824
67	170016	2589.70803850451	1585.0435269632
67	181277	2767.56963965397	1319.5237387267
67	196500	3001.68712830766	86.95289013633
67	207629	3173.66511219396	1028.5612798871
67	219265	3347.04141346805	55.590634921288
67	229657	3518.80703468986	398.37056561272
68	22144	255.84779902881	513.0358230279
68	33871	448.19319876009	535.61086699269
68	48141	677.06675869495	21.931916217438
68	59169	848.7261496834	317.40925122931
68	70539	1025.76106963811	202.12762056955
68	80703	1197.55809694655	401.85543867317
68	90991	1369.71166461967	451.8319147473
68	107315	1609.93252936148	822.78309366953
68	119995	1808.50351789974	215.06361321356
68	131517	1990.98220410723	680.16577331754
68	141800	2163.19547252339	842.64499162549
68	153648	2347.19865713714	40.101988298595
68	167698	2558.38293008669	28.337751780655
68	180686	2759.86846649987	85.651432111638
68	193513	2959.01471182234	514.34163200424
68	204604	3132.08040502304	713.14779049417
68	215293	3304.62795256398	125.49196032282
68	227374	3487.38771235538	577.61382047909
69	22313	258.79255414609	34.315168001606
69	32310	434.95907889956	56.710501920396
69	45693	637.34996465174	999.41299654116
69	56461	812.97470310045	454.2108742617
69	69105	1011.69805301319	324.18813738845
69	79834	1191.73488004265	1313.0854134659
69	91249	1370.88782926734	606.1117032553
69	108363	1626.53936235939	237.17768257094
69	119391	1797.92684244739	295.53490302284
69	134944	2033.48101481382	1379.2769732503
69	146657	2215.28254416568	126.76971502584
69	159115	2410.68019026048	429.30286290833
69	170178	2591.36770167415	323.87230707976
69	181739	2772.88025871974	414.64309123941
69	192655	2945.4661795195	921.57731539511
69	204264	3125.96479805831	104.78026952192
69	216010	3307.82359415638	175.85019071057
69	227026	3483.12579428199	207.51663084917
70	22478	263.58952280845	100.24506522287
70	36379	497.56774199387	7.3367325820003
70	49505	721.94331393355	1813.0525230985
70	61019	896.43682975787	98.133557455776
70	73726	1099.59403742673	1455.3923044438
70	85439	1274.6615414126	882.99548162412
70	97470	1458.13950380141	1010.7447146374
70	110244	1659.64589808763	403.73712258691
70	121947	1840.44876881034	146.86712333972
70	135272	2041.47721713975	540.56454144604
70	146578	2214.78221815069	183.17076593188
70	157205	2392.33831946417	210.37573879256
70	173965	2654.0252133124	198.67138704255
70	186324	2835.11420024559	83.795125200234
70	198794	3025.57979419469	711.35021672328
70	210235	3214.09718611923	234.79949271144
70	222995	3406.37122675536	177.03452076716
71	22654	266.10770259858	1369.4306394968
71	36060	487.99913377161	241.97552872588
71	49427	720.98344386085	376.66070128482
71	61277	901.8365018082	858.23388327197
71	72802	1073.32431399531	169.00283950332
71	85597	1275.72912367792	382.39275939313
71	99016	1492.78682248781	1.9039148808154
71	110492	1665.39256544772	88.048698254086
71	122924	1856.51511669955	852.25524404391
71	135927	2052.35573513254	2586.6890637909
71	148414	2247.33664909912	119.61776593868
71	161223	2451.11924743428	1570.7110387008
71	173183	2640.92721405781	0.60802545119899
71	185325	2826.15826329767	807.00827861716
71	196734	3002.68672505859	80.784774398551
71	207942	3176.17955672853	9.230773375786
71	220008	3355.71115759037	538.10880213782
71	233658	3564.7531044432	131.40089371032
72	22732	266.19248475191	203.89702710948
72	33695	444.06424497209	100.63465794817
72	46665	657.87634097529	293.29042061593
72	57758	831.02721131402	606.1025065603
72	73383	1090.27223201237	311.55550075728
72	86891	1299.38605217359	468.35519398445
72	98487	1471.68978891269	901.00598304508
72	112508	1707.1288776112	82.059337267426
72	124781	1894.71143115472	752.17503556785
72	137810	2106.7112602232	247.80685478227
72	150109	2298.6467000267	267.7208115967
72	162828	2483.14833913827	413.52498874372
72	174044	2655.12616390704	764.74836014544
72	187193	2862.95356350106	98.250254515864
72	202707	3105.90426135012	1113.984894192
72	216089	3307.91200886805	145.84545505284
72	227691	3490.58512621114	456.23815768518
73	22969	269.11048179204	1574.4224960365
73	34364	455.04966622042	1325.1650263218
73	44686	626.93445070357	692.83647464858
73	61781	911.93514985104	381.53878835306
73	74297	1110.15269075421	40.257971200909
73	86310	1286.0217738647	720.74601886131
73	97891	1465.43448688648	2481.4731039712
73	109048	1642.02199002126	125.58471401625
73	121434	1825.63689010892	2041.516714053
73	132411	1997.68511157022	180.66673013173
73	143907	2185.48254941723	67.141975123024
73	154686	2357.93568179391	403.19831956772
73	166759	2542.65755974154	1875.0365696891
73	178374	2728.44611785501	1375.2668860228
73	190030	2902.51372207021	119.19731365407
73	205314	3138.70398011287	923.39768654582
73	218262	3338.57491114531	504.07100974691
73	229577	3518.34317724983	209.20420505647
74	23051	270.26772179707	1141.0111607298
74	35611	478.87021220991	188.00288220244
74	47064	664.56029261584	259.02451631422
74	58350	838.37960611364	1185.6047302294
74	71527	1046.32616217139	322.24995821279
74	82895	1228.25428182989	257.78998083498
74	95361	1427.42009830508	330.78588236528
74	108284	1626.3105634073	310.79994709841
74	120337	1813.87678504355	190.27232921363
74	131128	1987.97506381185	696.45419182214
74	141722	2162.57899035673	165.31403525041
74	152990	2334.52460109774	574.01112135938
74	164703	2521.22930803027	596.09246095084
74	176590	2695.07001315025	516.70703076301
74	190213	2905.45911917545	39.448630533534
74	201260	3081.05472695471	399.22998031714
74	213688	3263.44905026717	1184.9500547081
74	228414	3506.14128738101	220.27493347428
75	23129	270.81553619133	714.90909445606
75	34610	461.14226025863	97.391871078466
75	49246	709.64903898833	318.86694203073
75	62591	929.46987559192	994.9173730979
75	74120	1107.83767373087	1505.4633196223
75	85924	1283.55424246288	20.33984305803
75	102839	1557.1563594719	620.57135287956
75	113736	1728.74192921223	505.0217172011
75	127173	1939.48522738769	16.578606146083
75	141037	2152.10285373392	170.207138221
75	152725	2329.75248652309	1308.1110352684
75	165169	2524.60134626569	369.13077044108
75	179817	2752.75045525833	808.0483143578
75	191736	2934.03364441707	1122.5280465308
75	203338	3112.60135951329	219.14969588745
75	214344	3287.14205270773	377.06365518575
75	225668	3459.66028906696	312.4351694072
76	23286	271.35700375659	675.57679094612
76	34029	451.81432435137	1442.5521411329
76	48710	681.39554280157	196.26344002262
76	60579	880.67501631308	3343.5555638403
76	72361	1060.4913800713	44.943320784973
76	83806	1237.28092942649	108.22267053908
76	95440	1427.50578549891	951.69021954487
76	108970	1641.36430342011	132.78040914325
76	120257	1812.74180013369	834.72777953502
76	131674	1992.43669340887	141.70329096571
76	146128	2207.83555080851	74.17161220858
76	157771	2395.09179584708	1213.1802364303
76	170564	2593.10961823691	1136.8691673781
76	182496	2780.25823558708	627.35666987675
76	197464	3007.59596350589	658.52755002563
76	209109	3184.62074220674	84.096587660309
76	220401	3359.46522641799	28.687718861893
76	232185	3547.37663345724	731.99314188964
77	23955	287.29725391068	296.15975005945
77	35361	467.44914329694	139.94513129071
77	48317	678.43216857492	384.3070205706
77	59971	868.77716947652	129.85467292085
77	71780	1048.06500853924	617.14608795498
77	84598	1252.82779741527	1175.6200139755
77	96338	1433.81651578978	266.99583143481
77	108616	1628.45745913739	540.43078522539
77	120601	1819.25106595101	1357.4569479641
77	131835	1994.07327787574	134.46985890814
77	142209	2167.70300406817	415.10780890632
77	153494	2345.24834933552	523.97642232657
77	168708	2572.05197900999	474.29599871388
77	180527	2759.51453994044	1279.029330759
77	192255	2940.64865976901	683.29390772812
77	203104	3112.0904897429	896.22865332772
77	217952	3335.43732783858	257.5675171199
77	228572	3507.59978576905	39.665205800589
78	24033	287.5910862289	246.06490630853
78	35177	465.73670335955	536.95448294987
78	47631	669.09272522008	620.62360190451
78	61514	904.27185507423	620.89780076553
78	76330	1135.7755736958	311.514477127
78	90909	1368.14180908359	274.86206191731
78	103890	1572.93659841826	481.27388579428
78	117472	1775.86792424016	655.67087576159
78	128804	1955.51617706923	1287.6807667031
78	139462	2132.0683954752	36.009469489634
78	152302	2325.32911998701	94.044419758299
78	167258	2551.96437758426	832.48651574709
78	179314	2742.37989636213	222.5508366384
78	191913	2936.01985747576	80.281391472036
78	204421	3128.35930954475	450.70491583673
78	215449	3305.67170813345	226.82331273783
78	226529	3480.12801704947	976.25708668051
79	24481	327.32110324993	534.28420393655
79	36741	513.61093479174	107.30550632226
79	48903	686.84278909755	639.41997589178
79	68382	1007.93733299364	91.742430862113
79	85278	1272.78496499896	778.37388961893
79	98147	1467.76295579655	26.011872760841
79	112590	1708.56761900442	168.84860427325
79	124310	1889.57004892692	376.79985488811
79	136427	2072.99884751454	1818.0420269641
79	149217	2261.16990268009	660.89666328447
79	161067	2450.21991220461	168.89297098671
79	173542	2644.27935071265	2048.7644077297
79	188084	2876.70987845822	61.043954520725
79	199770	3052.86033908083	270.57789522977
79	211441	3229.40301176691	628.75156571223
79	223658	3424.10064385445	936.53032029387

