version 3
run N75-0-20260518-02:26:57-159888
attr configname N75
attr datetime 20260518-02:26:57
attr datetimef 20260518-022657
attr experiment N75
attr inifile omnetpp.ini
attr iterationvars "$0=\"avg\""
attr iterationvarsd avg
attr iterationvarsf avg-
attr measurement "$0=\"avg\""
attr network test2.LoRaNetworkTest
attr processid 159888
attr repetition 0
attr replication #0
attr resultdir results
attr runnumber 0
attr seedset 0
config extends General
config **.numPatients 75
config network test2.LoRaNetworkTest
config sim-time-limit 1h
config warmup-period 60s
config simtime-resolution -11
config repeat 30
config rng-class cMersenneTwister
config record-eventlog false
config **.numPatients 20
config **.HospitalServer.app[0].queueLength:vector.vector-recording true
config **.HospitalServer.app[0].urgentWaitTime:vector.vector-recording true
config **.HospitalServer.app[0].normalWaitTime:vector.vector-recording true
config **.HospitalServer.app[0].urgentEndToEndDelay:vector.vector-recording true
config **.HospitalServer.app[0].normalEndToEndDelay:vector.vector-recording true
config **.loRaNodes[*].app[0].emergencyVariate:vector.vector-recording true
config **.vector-recording false
config **.loRaNodes[0].**.initialX "300m + uniform(-10m, 10m)"
config **.loRaNodes[0].**.initialY "250m + uniform(-8m, 8m)"
config **.loRaNodes[1].**.initialX "450m + uniform(-10m, 10m)"
config **.loRaNodes[1].**.initialY "250m + uniform(-8m, 8m)"
config **.loRaNodes[2].**.initialX "600m + uniform(-10m, 10m)"
config **.loRaNodes[2].**.initialY "250m + uniform(-8m, 8m)"
config **.loRaNodes[3].**.initialX "750m + uniform(-10m, 10m)"
config **.loRaNodes[3].**.initialY "250m + uniform(-8m, 8m)"
config **.loRaNodes[4].**.initialX "900m + uniform(-10m, 10m)"
config **.loRaNodes[4].**.initialY "250m + uniform(-8m, 8m)"
config **.loRaNodes[5].**.initialX "1050m + uniform(-10m, 10m)"
config **.loRaNodes[5].**.initialY "250m + uniform(-8m, 8m)"
config **.loRaNodes[6].**.initialX "1200m + uniform(-10m, 10m)"
config **.loRaNodes[6].**.initialY "250m + uniform(-8m, 8m)"
config **.loRaNodes[7].**.initialX "1350m + uniform(-10m, 10m)"
config **.loRaNodes[7].**.initialY "250m + uniform(-8m, 8m)"
config **.loRaNodes[8].**.initialX "1500m + uniform(-10m, 10m)"
config **.loRaNodes[8].**.initialY "250m + uniform(-8m, 8m)"
config **.loRaNodes[9].**.initialX "1650m + uniform(-10m, 10m)"
config **.loRaNodes[9].**.initialY "250m + uniform(-8m, 8m)"
config **.loRaNodes[10].**.initialX "300m + uniform(-10m, 10m)"
config **.loRaNodes[10].**.initialY "370m + uniform(-8m, 8m)"
config **.loRaNodes[11].**.initialX "450m + uniform(-10m, 10m)"
config **.loRaNodes[11].**.initialY "370m + uniform(-8m, 8m)"
config **.loRaNodes[12].**.initialX "600m + uniform(-10m, 10m)"
config **.loRaNodes[12].**.initialY "370m + uniform(-8m, 8m)"
config **.loRaNodes[13].**.initialX "750m + uniform(-10m, 10m)"
config **.loRaNodes[13].**.initialY "370m + uniform(-8m, 8m)"
config **.loRaNodes[14].**.initialX "900m + uniform(-10m, 10m)"
config **.loRaNodes[14].**.initialY "370m + uniform(-8m, 8m)"
config **.loRaNodes[15].**.initialX "1050m + uniform(-10m, 10m)"
config **.loRaNodes[15].**.initialY "370m + uniform(-8m, 8m)"
config **.loRaNodes[16].**.initialX "1200m + uniform(-10m, 10m)"
config **.loRaNodes[16].**.initialY "370m + uniform(-8m, 8m)"
config **.loRaNodes[17].**.initialX "1350m + uniform(-10m, 10m)"
config **.loRaNodes[17].**.initialY "370m + uniform(-8m, 8m)"
config **.loRaNodes[18].**.initialX "1500m + uniform(-10m, 10m)"
config **.loRaNodes[18].**.initialY "370m + uniform(-8m, 8m)"
config **.loRaNodes[19].**.initialX "1650m + uniform(-10m, 10m)"
config **.loRaNodes[19].**.initialY "370m + uniform(-8m, 8m)"
config **.loRaNodes[20].**.initialX "300m + uniform(-10m, 10m)"
config **.loRaNodes[20].**.initialY "490m + uniform(-8m, 8m)"
config **.loRaNodes[21].**.initialX "450m + uniform(-10m, 10m)"
config **.loRaNodes[21].**.initialY "490m + uniform(-8m, 8m)"
config **.loRaNodes[22].**.initialX "600m + uniform(-10m, 10m)"
config **.loRaNodes[22].**.initialY "490m + uniform(-8m, 8m)"
config **.loRaNodes[23].**.initialX "750m + uniform(-10m, 10m)"
config **.loRaNodes[23].**.initialY "490m + uniform(-8m, 8m)"
config **.loRaNodes[24].**.initialX "900m + uniform(-10m, 10m)"
config **.loRaNodes[24].**.initialY "490m + uniform(-8m, 8m)"
config **.loRaNodes[25].**.initialX "1050m + uniform(-10m, 10m)"
config **.loRaNodes[25].**.initialY "490m + uniform(-8m, 8m)"
config **.loRaNodes[26].**.initialX "1200m + uniform(-10m, 10m)"
config **.loRaNodes[26].**.initialY "490m + uniform(-8m, 8m)"
config **.loRaNodes[27].**.initialX "1350m + uniform(-10m, 10m)"
config **.loRaNodes[27].**.initialY "490m + uniform(-8m, 8m)"
config **.loRaNodes[28].**.initialX "1500m + uniform(-10m, 10m)"
config **.loRaNodes[28].**.initialY "490m + uniform(-8m, 8m)"
config **.loRaNodes[29].**.initialX "1650m + uniform(-10m, 10m)"
config **.loRaNodes[29].**.initialY "490m + uniform(-8m, 8m)"
config **.loRaNodes[30].**.initialX "300m + uniform(-10m, 10m)"
config **.loRaNodes[30].**.initialY "610m + uniform(-8m, 8m)"
config **.loRaNodes[31].**.initialX "450m + uniform(-10m, 10m)"
config **.loRaNodes[31].**.initialY "610m + uniform(-8m, 8m)"
config **.loRaNodes[32].**.initialX "600m + uniform(-10m, 10m)"
config **.loRaNodes[32].**.initialY "610m + uniform(-8m, 8m)"
config **.loRaNodes[33].**.initialX "750m + uniform(-10m, 10m)"
config **.loRaNodes[33].**.initialY "610m + uniform(-8m, 8m)"
config **.loRaNodes[34].**.initialX "900m + uniform(-10m, 10m)"
config **.loRaNodes[34].**.initialY "610m + uniform(-8m, 8m)"
config **.loRaNodes[35].**.initialX "1050m + uniform(-10m, 10m)"
config **.loRaNodes[35].**.initialY "610m + uniform(-8m, 8m)"
config **.loRaNodes[36].**.initialX "1200m + uniform(-10m, 10m)"
config **.loRaNodes[36].**.initialY "610m + uniform(-8m, 8m)"
config **.loRaNodes[37].**.initialX "1350m + uniform(-10m, 10m)"
config **.loRaNodes[37].**.initialY "610m + uniform(-8m, 8m)"
config **.loRaNodes[38].**.initialX "1500m + uniform(-10m, 10m)"
config **.loRaNodes[38].**.initialY "610m + uniform(-8m, 8m)"
config **.loRaNodes[39].**.initialX "1650m + uniform(-10m, 10m)"
config **.loRaNodes[39].**.initialY "610m + uniform(-8m, 8m)"
config **.loRaNodes[40].**.initialX "300m + uniform(-10m, 10m)"
config **.loRaNodes[40].**.initialY "730m + uniform(-8m, 8m)"
config **.loRaNodes[41].**.initialX "450m + uniform(-10m, 10m)"
config **.loRaNodes[41].**.initialY "730m + uniform(-8m, 8m)"
config **.loRaNodes[42].**.initialX "600m + uniform(-10m, 10m)"
config **.loRaNodes[42].**.initialY "730m + uniform(-8m, 8m)"
config **.loRaNodes[43].**.initialX "750m + uniform(-10m, 10m)"
config **.loRaNodes[43].**.initialY "730m + uniform(-8m, 8m)"
config **.loRaNodes[44].**.initialX "900m + uniform(-10m, 10m)"
config **.loRaNodes[44].**.initialY "730m + uniform(-8m, 8m)"
config **.loRaNodes[45].**.initialX "1050m + uniform(-10m, 10m)"
config **.loRaNodes[45].**.initialY "730m + uniform(-8m, 8m)"
config **.loRaNodes[46].**.initialX "1200m + uniform(-10m, 10m)"
config **.loRaNodes[46].**.initialY "730m + uniform(-8m, 8m)"
config **.loRaNodes[47].**.initialX "1350m + uniform(-10m, 10m)"
config **.loRaNodes[47].**.initialY "730m + uniform(-8m, 8m)"
config **.loRaNodes[48].**.initialX "1500m + uniform(-10m, 10m)"
config **.loRaNodes[48].**.initialY "730m + uniform(-8m, 8m)"
config **.loRaNodes[49].**.initialX "1650m + uniform(-10m, 10m)"
config **.loRaNodes[49].**.initialY "730m + uniform(-8m, 8m)"
config **.loRaNodes[50].**.initialX "300m + uniform(-10m, 10m)"
config **.loRaNodes[50].**.initialY "850m + uniform(-8m, 8m)"
config **.loRaNodes[51].**.initialX "450m + uniform(-10m, 10m)"
config **.loRaNodes[51].**.initialY "850m + uniform(-8m, 8m)"
config **.loRaNodes[52].**.initialX "600m + uniform(-10m, 10m)"
config **.loRaNodes[52].**.initialY "850m + uniform(-8m, 8m)"
config **.loRaNodes[53].**.initialX "750m + uniform(-10m, 10m)"
config **.loRaNodes[53].**.initialY "850m + uniform(-8m, 8m)"
config **.loRaNodes[54].**.initialX "900m + uniform(-10m, 10m)"
config **.loRaNodes[54].**.initialY "850m + uniform(-8m, 8m)"
config **.loRaNodes[55].**.initialX "1050m + uniform(-10m, 10m)"
config **.loRaNodes[55].**.initialY "850m + uniform(-8m, 8m)"
config **.loRaNodes[56].**.initialX "1200m + uniform(-10m, 10m)"
config **.loRaNodes[56].**.initialY "850m + uniform(-8m, 8m)"
config **.loRaNodes[57].**.initialX "1350m + uniform(-10m, 10m)"
config **.loRaNodes[57].**.initialY "850m + uniform(-8m, 8m)"
config **.loRaNodes[58].**.initialX "1500m + uniform(-10m, 10m)"
config **.loRaNodes[58].**.initialY "850m + uniform(-8m, 8m)"
config **.loRaNodes[59].**.initialX "1650m + uniform(-10m, 10m)"
config **.loRaNodes[59].**.initialY "850m + uniform(-8m, 8m)"
config **.loRaNodes[60].**.initialX "300m + uniform(-10m, 10m)"
config **.loRaNodes[60].**.initialY "970m + uniform(-8m, 8m)"
config **.loRaNodes[61].**.initialX "450m + uniform(-10m, 10m)"
config **.loRaNodes[61].**.initialY "970m + uniform(-8m, 8m)"
config **.loRaNodes[62].**.initialX "600m + uniform(-10m, 10m)"
config **.loRaNodes[62].**.initialY "970m + uniform(-8m, 8m)"
config **.loRaNodes[63].**.initialX "750m + uniform(-10m, 10m)"
config **.loRaNodes[63].**.initialY "970m + uniform(-8m, 8m)"
config **.loRaNodes[64].**.initialX "900m + uniform(-10m, 10m)"
config **.loRaNodes[64].**.initialY "970m + uniform(-8m, 8m)"
config **.loRaNodes[65].**.initialX "1050m + uniform(-10m, 10m)"
config **.loRaNodes[65].**.initialY "970m + uniform(-8m, 8m)"
config **.loRaNodes[66].**.initialX "1200m + uniform(-10m, 10m)"
config **.loRaNodes[66].**.initialY "970m + uniform(-8m, 8m)"
config **.loRaNodes[67].**.initialX "1350m + uniform(-10m, 10m)"
config **.loRaNodes[67].**.initialY "970m + uniform(-8m, 8m)"
config **.loRaNodes[68].**.initialX "1500m + uniform(-10m, 10m)"
config **.loRaNodes[68].**.initialY "970m + uniform(-8m, 8m)"
config **.loRaNodes[69].**.initialX "1650m + uniform(-10m, 10m)"
config **.loRaNodes[69].**.initialY "970m + uniform(-8m, 8m)"
config **.loRaNodes[70].**.initialX "300m + uniform(-10m, 10m)"
config **.loRaNodes[70].**.initialY "1090m + uniform(-8m, 8m)"
config **.loRaNodes[71].**.initialX "450m + uniform(-10m, 10m)"
config **.loRaNodes[71].**.initialY "1090m + uniform(-8m, 8m)"
config **.loRaNodes[72].**.initialX "600m + uniform(-10m, 10m)"
config **.loRaNodes[72].**.initialY "1090m + uniform(-8m, 8m)"
config **.loRaNodes[73].**.initialX "750m + uniform(-10m, 10m)"
config **.loRaNodes[73].**.initialY "1090m + uniform(-8m, 8m)"
config **.loRaNodes[74].**.initialX "900m + uniform(-10m, 10m)"
config **.loRaNodes[74].**.initialY "1090m + uniform(-8m, 8m)"
config **.HospitalServer.numApps 1
config **.HospitalServer.app[0].typename HospitalServerApp
config **.HospitalServer.app[0].destPort 2000
config **.HospitalServer.app[0].localPort 1000
config **.HospitalServer.app[0].adrMethod "\"avg\""
config **.HospitalServer.**.evaluateADRinServer true
config **.HospitalServer.app[0].queueSize 50
config **.HospitalServer.app[0].expo_rate_lambda 0.83
config **.loRaGateway.numUdpApps 1
config **.loRaGateway.packetForwarder.localPort 2000
config **.loRaGateway.packetForwarder.destPort 1000
config **.loRaGateway.packetForwarder.destAddresses "\"HospitalServer\""
config **.loRaGateway.**.initFromDisplayString false
config **.loRaGateway.**.initialX 544.00m
config **.loRaGateway.**.initialY 544.00m
config **.loRaNodes[*].numApps 1
config **.loRaNodes[*].app[0].typename PatientSensorApp
config **.loRaNodes[*].app[0].expo_rate_lambda 0.00175
config **.loRaNodes[*].app[0].emergencyThreshold 50
config **.loRaNodes[*].**.timeToFirstPacket exponential(24s)
config **.loRaNodes[*].**.timeToNextPacket exponential(24s)
config **.loRaNodes[*].**.numberOfPacketsToSend 0
config **.loRaNodes[*].**initialLoRaSF 12
config **.loRaNodes[*].**initialLoRaTP 14dBm
config **.loRaNodes[*].**initialLoRaBW "125 kHz"
config **.loRaNodes[*].**initialLoRaCR 4
config **.loRaNodes[*].**.initFromDisplayString false
config **.loRaNodes[*].**.evaluateADRinNode true
config **.loRaNodes[*].LoRaNic.radio.energyConsumer.typename LoRaEnergyConsumer
config **.loRaNodes[*].**.energySourceModule "\"^.IdealEpEnergyStorage\""
config **.loRaNodes[*].LoRaNic.radio.energyConsumer.configFile "xmldoc(\"energyConsumptionParam.xml\")"
config **.maxTransmissionDuration 4s
config **.energyDetection -110dBm
config **.radio.radioMediumModule "\"LoRaMedium\""
config **.minInterferenceTime 0s
config **.constraintAreaMinX 0m
config **.constraintAreaMinY 0m
config **.constraintAreaMinZ 0m
config **.constraintAreaMaxZ 0m
config **.constraintAreaMaxX 3000.0m
config **.constraintAreaMaxY 3000.0m

vector 0 LoRaNetworkTest.loRaNodes[59].app[0] emergencyVariate:vector ETV
attr recordingmode vector
attr title "Exponential variate samples"
vector 1 LoRaNetworkTest.loRaNodes[18].app[0] emergencyVariate:vector ETV
attr recordingmode vector
attr title "Exponential variate samples"
vector 2 LoRaNetworkTest.loRaNodes[11].app[0] emergencyVariate:vector ETV
attr recordingmode vector
attr title "Exponential variate samples"
vector 3 LoRaNetworkTest.HospitalServer.app[0] queueLength:vector ETV
attr recordingmode vector
attr title "Total queue length"
vector 4 LoRaNetworkTest.HospitalServer.app[0] urgentWaitTime:vector ETV
attr recordingmode vector
attr title "Urgent wait time (s)"
vector 5 LoRaNetworkTest.HospitalServer.app[0] urgentEndToEndDelay:vector ETV
attr recordingmode vector
attr title "Urgent end-to-end delay (s)"
vector 6 LoRaNetworkTest.loRaNodes[44].app[0] emergencyVariate:vector ETV
attr recordingmode vector
attr title "Exponential variate samples"
vector 7 LoRaNetworkTest.loRaNodes[52].app[0] emergencyVariate:vector ETV
attr recordingmode vector
attr title "Exponential variate samples"
vector 8 LoRaNetworkTest.HospitalServer.app[0] normalWaitTime:vector ETV
attr recordingmode vector
attr title "Normal wait time (s)"
vector 9 LoRaNetworkTest.HospitalServer.app[0] normalEndToEndDelay:vector ETV
attr recordingmode vector
attr title "Normal end-to-end delay (s)"
vector 10 LoRaNetworkTest.loRaNodes[63].app[0] emergencyVariate:vector ETV
attr recordingmode vector
attr title "Exponential variate samples"
vector 11 LoRaNetworkTest.loRaNodes[54].app[0] emergencyVariate:vector ETV
attr recordingmode vector
attr title "Exponential variate samples"
vector 12 LoRaNetworkTest.loRaNodes[48].app[0] emergencyVariate:vector ETV
attr recordingmode vector
attr title "Exponential variate samples"
vector 13 LoRaNetworkTest.loRaNodes[27].app[0] emergencyVariate:vector ETV
attr recordingmode vector
attr title "Exponential variate samples"
vector 14 LoRaNetworkTest.loRaNodes[0].app[0] emergencyVariate:vector ETV
attr recordingmode vector
attr title "Exponential variate samples"
vector 15 LoRaNetworkTest.loRaNodes[4].app[0] emergencyVariate:vector ETV
attr recordingmode vector
attr title "Exponential variate samples"
vector 16 LoRaNetworkTest.loRaNodes[8].app[0] emergencyVariate:vector ETV
attr recordingmode vector
attr title "Exponential variate samples"
vector 17 LoRaNetworkTest.loRaNodes[22].app[0] emergencyVariate:vector ETV
attr recordingmode vector
attr title "Exponential variate samples"
vector 18 LoRaNetworkTest.loRaNodes[33].app[0] emergencyVariate:vector ETV
attr recordingmode vector
attr title "Exponential variate samples"
vector 19 LoRaNetworkTest.loRaNodes[41].app[0] emergencyVariate:vector ETV
attr recordingmode vector
attr title "Exponential variate samples"
vector 20 LoRaNetworkTest.loRaNodes[68].app[0] emergencyVariate:vector ETV
attr recordingmode vector
attr title "Exponential variate samples"
vector 21 LoRaNetworkTest.loRaNodes[47].app[0] emergencyVariate:vector ETV
attr recordingmode vector
attr title "Exponential variate samples"
vector 22 LoRaNetworkTest.loRaNodes[38].app[0] emergencyVariate:vector ETV
attr recordingmode vector
attr title "Exponential variate samples"
vector 23 LoRaNetworkTest.loRaNodes[13].app[0] emergencyVariate:vector ETV
attr recordingmode vector
attr title "Exponential variate samples"
vector 24 LoRaNetworkTest.loRaNodes[26].app[0] emergencyVariate:vector ETV
attr recordingmode vector
attr title "Exponential variate samples"
vector 25 LoRaNetworkTest.loRaNodes[3].app[0] emergencyVariate:vector ETV
attr recordingmode vector
attr title "Exponential variate samples"
vector 26 LoRaNetworkTest.loRaNodes[74].app[0] emergencyVariate:vector ETV
attr recordingmode vector
attr title "Exponential variate samples"
vector 27 LoRaNetworkTest.loRaNodes[29].app[0] emergencyVariate:vector ETV
attr recordingmode vector
attr title "Exponential variate samples"
vector 28 LoRaNetworkTest.loRaNodes[5].app[0] emergencyVariate:vector ETV
attr recordingmode vector
attr title "Exponential variate samples"
vector 29 LoRaNetworkTest.loRaNodes[50].app[0] emergencyVariate:vector ETV
attr recordingmode vector
attr title "Exponential variate samples"
vector 30 LoRaNetworkTest.loRaNodes[23].app[0] emergencyVariate:vector ETV
attr recordingmode vector
attr title "Exponential variate samples"
vector 31 LoRaNetworkTest.loRaNodes[20].app[0] emergencyVariate:vector ETV
attr recordingmode vector
attr title "Exponential variate samples"
vector 32 LoRaNetworkTest.loRaNodes[1].app[0] emergencyVariate:vector ETV
attr recordingmode vector
attr title "Exponential variate samples"
vector 33 LoRaNetworkTest.loRaNodes[67].app[0] emergencyVariate:vector ETV
attr recordingmode vector
attr title "Exponential variate samples"
vector 34 LoRaNetworkTest.loRaNodes[57].app[0] emergencyVariate:vector ETV
attr recordingmode vector
attr title "Exponential variate samples"
vector 35 LoRaNetworkTest.loRaNodes[43].app[0] emergencyVariate:vector ETV
attr recordingmode vector
attr title "Exponential variate samples"
vector 36 LoRaNetworkTest.loRaNodes[19].app[0] emergencyVariate:vector ETV
attr recordingmode vector
attr title "Exponential variate samples"
vector 37 LoRaNetworkTest.loRaNodes[72].app[0] emergencyVariate:vector ETV
attr recordingmode vector
attr title "Exponential variate samples"
vector 38 LoRaNetworkTest.loRaNodes[40].app[0] emergencyVariate:vector ETV
attr recordingmode vector
attr title "Exponential variate samples"
vector 39 LoRaNetworkTest.loRaNodes[24].app[0] emergencyVariate:vector ETV
attr recordingmode vector
attr title "Exponential variate samples"
vector 40 LoRaNetworkTest.loRaNodes[17].app[0] emergencyVariate:vector ETV
attr recordingmode vector
attr title "Exponential variate samples"
vector 41 LoRaNetworkTest.loRaNodes[28].app[0] emergencyVariate:vector ETV
attr recordingmode vector
attr title "Exponential variate samples"
vector 42 LoRaNetworkTest.loRaNodes[73].app[0] emergencyVariate:vector ETV
attr recordingmode vector
attr title "Exponential variate samples"
vector 43 LoRaNetworkTest.loRaNodes[60].app[0] emergencyVariate:vector ETV
attr recordingmode vector
attr title "Exponential variate samples"
vector 44 LoRaNetworkTest.loRaNodes[64].app[0] emergencyVariate:vector ETV
attr recordingmode vector
attr title "Exponential variate samples"
vector 45 LoRaNetworkTest.loRaNodes[7].app[0] emergencyVariate:vector ETV
attr recordingmode vector
attr title "Exponential variate samples"
vector 46 LoRaNetworkTest.loRaNodes[58].app[0] emergencyVariate:vector ETV
attr recordingmode vector
attr title "Exponential variate samples"
vector 47 LoRaNetworkTest.loRaNodes[15].app[0] emergencyVariate:vector ETV
attr recordingmode vector
attr title "Exponential variate samples"
vector 48 LoRaNetworkTest.loRaNodes[12].app[0] emergencyVariate:vector ETV
attr recordingmode vector
attr title "Exponential variate samples"
vector 49 LoRaNetworkTest.loRaNodes[39].app[0] emergencyVariate:vector ETV
attr recordingmode vector
attr title "Exponential variate samples"
vector 50 LoRaNetworkTest.loRaNodes[25].app[0] emergencyVariate:vector ETV
attr recordingmode vector
attr title "Exponential variate samples"
vector 51 LoRaNetworkTest.loRaNodes[6].app[0] emergencyVariate:vector ETV
attr recordingmode vector
attr title "Exponential variate samples"
vector 52 LoRaNetworkTest.loRaNodes[66].app[0] emergencyVariate:vector ETV
attr recordingmode vector
attr title "Exponential variate samples"
vector 53 LoRaNetworkTest.loRaNodes[9].app[0] emergencyVariate:vector ETV
attr recordingmode vector
attr title "Exponential variate samples"
vector 54 LoRaNetworkTest.loRaNodes[69].app[0] emergencyVariate:vector ETV
attr recordingmode vector
attr title "Exponential variate samples"
vector 55 LoRaNetworkTest.loRaNodes[42].app[0] emergencyVariate:vector ETV
attr recordingmode vector
attr title "Exponential variate samples"
vector 56 LoRaNetworkTest.loRaNodes[71].app[0] emergencyVariate:vector ETV
attr recordingmode vector
attr title "Exponential variate samples"
vector 57 LoRaNetworkTest.loRaNodes[35].app[0] emergencyVariate:vector ETV
attr recordingmode vector
attr title "Exponential variate samples"
vector 58 LoRaNetworkTest.loRaNodes[61].app[0] emergencyVariate:vector ETV
attr recordingmode vector
attr title "Exponential variate samples"
vector 59 LoRaNetworkTest.loRaNodes[53].app[0] emergencyVariate:vector ETV
attr recordingmode vector
attr title "Exponential variate samples"
vector 60 LoRaNetworkTest.loRaNodes[45].app[0] emergencyVariate:vector ETV
attr recordingmode vector
attr title "Exponential variate samples"
vector 61 LoRaNetworkTest.loRaNodes[37].app[0] emergencyVariate:vector ETV
attr recordingmode vector
attr title "Exponential variate samples"
vector 62 LoRaNetworkTest.loRaNodes[56].app[0] emergencyVariate:vector ETV
attr recordingmode vector
attr title "Exponential variate samples"
vector 63 LoRaNetworkTest.loRaNodes[34].app[0] emergencyVariate:vector ETV
attr recordingmode vector
attr title "Exponential variate samples"
vector 64 LoRaNetworkTest.loRaNodes[65].app[0] emergencyVariate:vector ETV
attr recordingmode vector
attr title "Exponential variate samples"
vector 65 LoRaNetworkTest.loRaNodes[62].app[0] emergencyVariate:vector ETV
attr recordingmode vector
attr title "Exponential variate samples"
vector 66 LoRaNetworkTest.loRaNodes[31].app[0] emergencyVariate:vector ETV
attr recordingmode vector
attr title "Exponential variate samples"
vector 67 LoRaNetworkTest.loRaNodes[46].app[0] emergencyVariate:vector ETV
attr recordingmode vector
attr title "Exponential variate samples"
vector 68 LoRaNetworkTest.loRaNodes[10].app[0] emergencyVariate:vector ETV
attr recordingmode vector
attr title "Exponential variate samples"
vector 69 LoRaNetworkTest.loRaNodes[55].app[0] emergencyVariate:vector ETV
attr recordingmode vector
attr title "Exponential variate samples"
vector 70 LoRaNetworkTest.loRaNodes[30].app[0] emergencyVariate:vector ETV
attr recordingmode vector
attr title "Exponential variate samples"
vector 71 LoRaNetworkTest.loRaNodes[14].app[0] emergencyVariate:vector ETV
attr recordingmode vector
attr title "Exponential variate samples"
vector 72 LoRaNetworkTest.loRaNodes[51].app[0] emergencyVariate:vector ETV
attr recordingmode vector
attr title "Exponential variate samples"
vector 73 LoRaNetworkTest.loRaNodes[49].app[0] emergencyVariate:vector ETV
attr recordingmode vector
attr title "Exponential variate samples"
vector 74 LoRaNetworkTest.loRaNodes[21].app[0] emergencyVariate:vector ETV
attr recordingmode vector
attr title "Exponential variate samples"
vector 75 LoRaNetworkTest.loRaNodes[16].app[0] emergencyVariate:vector ETV
attr recordingmode vector
attr title "Exponential variate samples"
vector 76 LoRaNetworkTest.loRaNodes[32].app[0] emergencyVariate:vector ETV
attr recordingmode vector
attr title "Exponential variate samples"
vector 77 LoRaNetworkTest.loRaNodes[36].app[0] emergencyVariate:vector ETV
attr recordingmode vector
attr title "Exponential variate samples"
vector 78 LoRaNetworkTest.loRaNodes[2].app[0] emergencyVariate:vector ETV
attr recordingmode vector
attr title "Exponential variate samples"
vector 79 LoRaNetworkTest.loRaNodes[70].app[0] emergencyVariate:vector ETV
attr recordingmode vector
attr title "Exponential variate samples"
0	11311	60.462771122	629.5934910063
0	23605	269.31729520442	3496.4816854139
0	36181	475.83478146814	52.41406084097
0	47577	651.15197231851	416.69684296107
0	58810	833.80079817297	871.12229696841
0	69410	1014.11918502687	3062.96068158
0	81159	1199.42187904064	126.7987107944
0	94047	1396.55281174813	1481.8284630442
0	107600	1618.97484169642	69.460889490698
0	118288	1791.56490962082	1573.9104523134
0	130524	1975.40245450486	604.9601923023
0	141652	2155.35660223164	258.35904128396
0	154506	2344.69724955594	2399.0563177046
0	166699	2528.69341616162	522.58229520539
0	177877	2703.68989270759	21.256823394274
0	189070	2881.3884843794	493.95198864835
0	203070	3104.82274439048	648.16906333948
0	216029	3307.51871680638	349.12012468026
0	227602	3492.8269686381	494.59395775061
1	11473	75.0112405838	433.39793330879
1	22422	257.15986353531	353.61149209545
1	35105	458.57911172937	770.72078983691
1	45494	636.18122008579	65.210899080085
1	57413	821.74027842008	860.70726717017
1	67690	998.729124104	1492.2866402761
1	82086	1212.60479367196	473.84913353515
1	94671	1410.3794564261	369.68038240952
1	106035	1582.32786981181	58.102829851401
1	117129	1765.66767410632	373.42741853991
1	129780	1954.81377302923	178.80567952088
1	145053	2199.16183905876	450.96192225274
1	157718	2400.84607395673	422.66890468516
1	169380	2577.8355523954	234.97559916489
1	183789	2792.89245790114	434.14492123216
1	195488	2981.74082772493	30.520950564289
1	208075	3174.643344044	1011.0988468332
1	222827	3399.36910781796	910.57497263737
2	11632	80.74489087323	22.898647429997
2	24244	318.70514660791	1465.6274356282
2	36688	498.18719942776	56.245313610238
2	48779	676.55330805167	581.66842052001
2	60381	864.84897366029	275.16418343514
2	71514	1046.34125581499	540.97157403578
2	84669	1255.82478113429	1312.5222978249
2	96191	1427.78275342191	244.00832434746
2	108973	1640.86080916696	22.294950413043
2	122610	1859.23695096462	523.08700097282
2	134995	2032.98162921566	1303.7926612664
2	148673	2250.99193341288	111.07526067764
2	164420	2496.20135117532	1143.7376440714
2	178547	2722.83428150668	305.13026607781
2	190072	2902.94548509142	61.759157229978
2	201292	3074.65508209705	222.04672160202
2	215127	3298.93743983547	1342.3042909038
2	226684	3474.84542537283	207.85179602283
3	11763	82.45702091767	1
3	11763	82.45702091767	0
3	12120	101.01956468254	1
3	12120	101.01956468254	0
3	12353	164.08150593485	1
3	12353	164.08150593485	0
3	12611	180.33244418339	1
3	12611	180.33244418339	0
3	12873	185.18233955065	1
3	12873	185.18233955065	0
3	13016	189.31190727161	1
3	13016	189.31190727161	0
3	13224	191.30870661573	1
3	13235	191.44114630368	0
3	13769	196.48890971026	1
3	13769	196.48890971026	0
3	14521	200.99045569678	1
3	14521	200.99045569678	0
3	14946	203.96251642734	1
3	14946	203.96251642734	0
3	15464	207.65096166802	1
3	15464	207.65096166802	0
3	16242	211.61221527652	1
3	16242	211.61221527652	0
3	17250	215.09585026029	1
3	17250	215.09585026029	0
3	17893	218.36616273059	1
3	17893	218.36616273059	0
3	18697	221.4033052141	1
3	18697	221.4033052141	0
3	19180	226.76157527218	1
3	19180	226.76157527218	0
3	19962	234.38613738669	1
3	19962	234.38613738669	0
3	20557	238.20704155535	1
3	20557	238.20704155535	0
3	21228	242.29785133903	1
3	21228	242.29785133903	0
3	21480	245.26719126929	1
3	21480	245.26719126929	0
3	21641	247.12612789095	1
3	21689	249.39201128446	0
3	22295	255.44365478573	1
3	22295	255.44365478573	0
3	22882	259.73386009709	1
3	22882	259.73386009709	0
3	23141	264.48297550663	1
3	23141	264.48297550663	0
3	23520	268.12950086388	1
3	23520	268.12950086388	0
3	23746	270.65518567021	1
3	23782	270.78838250048	0
3	24230	286.06207363364	1
3	24230	286.06207363364	0
3	24375	320.41727665235	1
3	24375	320.41727665235	0
3	24561	334.15759381874	1
3	24561	334.15759381874	0
3	24767	353.10980962011	1
3	24767	353.10980962011	0
3	24959	358.32365280375	1
3	24959	358.32365280375	0
3	25292	373.06482076795	1
3	25292	373.06482076795	0
3	25751	376.92780469838	1
3	25751	376.92780469838	0
3	26441	384.0620774201	1
3	26441	384.0620774201	0
3	26992	386.20275957046	1
3	26992	386.20275957046	0
3	28118	389.67487200305	1
3	28118	389.67487200305	0
3	29183	396.23180407393	1
3	29183	396.23180407393	0
3	30545	410.02589785926	1
3	30545	410.02589785926	0
3	32041	419.6251685497	1
3	32041	419.6251685497	0
3	32999	429.42946708643	1
3	32999	429.42946708643	0
3	33525	439.94202706066	1
3	33525	439.94202706066	0
3	34263	443.72930350244	1
3	34263	443.72930350244	0
3	34486	445.82441360622	1
3	34486	445.82441360622	0
3	34670	448.38637072868	1
3	34670	448.38637072868	0
3	34818	451.27649311995	1
3	34818	451.27649311995	0
3	35505	460.2912443934	1
3	35505	460.2912443934	0
3	36018	473.2927936663	1
3	36018	473.2927936663	0
3	36656	488.04163441516	1
3	36656	488.04163441516	0
3	36819	499.8993294722	1
3	36819	499.8993294722	0
3	37069	533.34948825007	1
3	37069	533.34948825007	0
3	37769	554.83631767705	1
3	37769	554.83631767705	0
3	38130	561.02481109318	1
3	38130	561.02481109318	0
3	38930	565.0783761715	1
3	38930	565.0783761715	0
3	39427	570.52201323612	1
3	39427	570.52201323612	0
3	40561	579.863730116	1
3	40561	579.863730116	0
3	40855	582.1292803063	1
3	40855	582.1292803063	0
3	41127	584.21923988566	1
3	41284	584.96442224394	0
3	41510	586.87570815009	1
3	41510	586.87570815009	0
3	42094	591.66947482825	1
3	42094	591.66947482825	0
3	42665	594.89864323845	1
3	42665	594.89864323845	0
3	43216	602.55062703335	1
3	43216	602.55062703335	0
3	43438	612.58331856377	1
3	43438	612.58331856377	0
3	43782	616.06979340476	1
3	43782	616.06979340476	0
3	44130	619.10231901287	1
3	44130	619.10231901287	0
3	44566	626.65454668374	1
3	44566	626.65454668374	0
3	44914	632.51203999444	1
3	44914	632.51203999444	0
3	45142	634.42018119893	1
3	45142	634.42018119893	0
3	45782	637.62144538484	1
3	45782	637.62144538484	0
3	46358	639.88988312155	1
3	46358	639.88988312155	0
3	46756	645.18806150605	1
3	46756	645.18806150605	0
3	47062	648.0374219244	1
3	47062	648.0374219244	0
3	47832	652.35319774152	1
3	47832	652.35319774152	0
3	48131	655.48650376741	1
3	48131	655.48650376741	0
3	49064	678.26543809611	1
3	49064	678.26543809611	0
3	49271	683.97682521613	1
3	49271	683.97682521613	0
3	49595	718.40345639434	1
3	49595	718.40345639434	0
3	49780	722.92087787022	1
3	49780	722.92087787022	0
3	50344	742.19581472478	1
3	50344	742.19581472478	0
3	52081	764.31014337194	1
3	52081	764.31014337194	0
3	52878	772.64866833135	1
3	52878	772.64866833135	0
3	53277	777.94165572595	1
3	53277	777.94165572595	0
3	54364	793.06085237955	1
3	54364	793.06085237955	0
3	55134	797.77348949298	1
3	55134	797.77348949298	0
3	55695	806.50642836408	1
3	55695	806.50642836408	0
3	56341	810.7492823552	1
3	56341	810.7492823552	0
3	57784	823.66424347892	1
3	57784	823.66424347892	0
3	59620	842.26691583158	1
3	59620	842.26691583158	0
3	59930	855.49089636594	1
3	59930	855.49089636594	0
3	60302	864.67363716037	1
3	60302	864.67363716037	0
3	60671	866.56110370473	1
3	60671	866.56110370473	0
3	61183	893.50474480228	1
3	61183	893.50474480228	0
3	61831	920.93441314605	1
3	61831	920.93441314605	0
3	61975	924.07488636046	1
3	61975	924.07488636046	0
3	62481	929.40324826096	1
3	62481	929.40324826096	0
3	63713	950.53727276467	1
3	63713	950.53727276467	0
3	64043	953.35096021612	1
3	64043	953.35096021612	0
3	65018	970.39269800492	1
3	65018	970.39269800492	0
3	65980	978.35677984959	1
3	65980	978.35677984959	0
3	66250	981.63088922036	1
3	66250	981.63088922036	0
3	66441	987.42456140448	1
3	66441	987.42456140448	0
3	66767	994.54775454302	1
3	66767	994.54775454302	0
3	67597	998.10515983498	1
3	67597	998.10515983498	0
3	68951	1007.36234888822	1
3	68951	1007.36234888822	0
3	69695	1016.55590053876	1
3	69695	1016.55590053876	0
3	70111	1018.57386789475	1
3	70111	1018.57386789475	0
3	70696	1022.40332558746	1
3	70696	1022.40332558746	0
3	70998	1025.49076757498	1
3	70998	1025.49076757498	0
3	71393	1040.58100910231	1
3	71393	1040.58100910231	0
3	71869	1048.05338836343	1
3	71869	1048.05338836343	0
3	72430	1057.78175182199	1
3	72430	1057.78175182199	0
3	72909	1069.94849187086	1
3	72909	1069.94849187086	0
3	73451	1092.33190428165	1
3	73451	1092.33190428165	0
3	73621	1094.210636636	1
3	73621	1094.210636636	0
3	73798	1102.0025054078	1
3	73798	1102.0025054078	0
3	74069	1104.64749057944	1
3	74069	1104.64749057944	0
3	74289	1106.56918794922	1
3	74289	1106.56918794922	0
3	75130	1120.077764609	1
3	75130	1120.077764609	0
3	75642	1124.81332489909	1
3	75642	1124.81332489909	0
3	76307	1136.68920421903	1
3	76307	1136.68920421903	0
3	76470	1139.64966955696	1
3	76492	1139.78634974235	0
3	77681	1160.84488604739	1
3	77681	1160.84488604739	0
3	77930	1165.1884151457	1
3	77930	1165.1884151457	0
3	78336	1170.20830158482	1
3	78336	1170.20830158482	0
3	78948	1179.81400806568	1
3	78948	1179.81400806568	0
3	79767	1187.08611893136	1
3	79767	1187.08611893136	0
3	79996	1189.54468394325	1
3	79996	1189.54468394325	0
3	80477	1192.76829730287	1
3	80477	1192.76829730287	0
3	80952	1198.18195780881	1
3	80952	1198.18195780881	0
3	81388	1200.18264981649	1
3	81412	1200.59845996105	0
3	81882	1206.23604595893	1
3	81882	1206.23604595893	0
3	82297	1213.73481263448	1
3	82297	1213.73481263448	0
3	83473	1229.51912630689	1
3	83473	1229.51912630689	0
3	83704	1234.72899622333	1
3	83704	1234.72899622333	0
3	83991	1237.35242352212	1
3	83991	1237.35242352212	0
3	84555	1247.57740684004	1
3	84555	1247.57740684004	0
3	84800	1257.53691117873	1
3	84800	1257.53691117873	0
3	85950	1278.86954067876	1
3	85950	1278.86954067876	0
3	86740	1295.44810559476	1
3	86740	1295.44810559476	0
3	87475	1305.96729712331	1
3	87475	1305.96729712331	0
3	87958	1318.34328418457	1
3	87958	1318.34328418457	0
3	88840	1328.34358698009	1
3	88840	1328.34358698009	0
3	89420	1336.72362555695	1
3	89420	1336.72362555695	0
3	89773	1342.84953644942	1
3	89773	1342.84953644942	0
3	90538	1357.85875569429	1
3	90538	1357.85875569429	0
3	91068	1360.33198389675	1
3	91068	1360.33198389675	0
3	91571	1362.15829107254	1
3	91571	1362.15829107254	0
3	91830	1365.04033380365	1
3	91830	1365.04033380365	0
3	92525	1371.75735076578	1
3	92525	1371.75735076578	0
3	93146	1380.14888804823	1
3	93146	1380.14888804823	0
3	93750	1388.82410229801	1
3	93750	1388.82410229801	0
3	93935	1391.32401399534	1
3	93935	1391.32401399534	0
3	94218	1397.9880423831	1
3	94218	1397.9880423831	0
3	94435	1401.15083126783	1
3	94435	1401.15083126783	0
3	94629	1406.31921984876	1
3	94629	1406.31921984876	0
3	94958	1412.24444040208	1
3	94958	1412.24444040208	0
3	95679	1419.33034582775	1
3	95679	1419.33034582775	0
3	95872	1423.34387582158	1
3	95872	1423.34387582158	0
3	96326	1429.49488346635	1
3	96326	1429.49488346635	0
3	96986	1450.56432619477	1
3	96986	1450.56432619477	0
3	97366	1458.12330897414	1
3	97366	1458.12330897414	0
3	97690	1460.63782167962	1
3	97690	1460.63782167962	0
3	97895	1465.97794696478	1
3	97895	1465.97794696478	0
3	98052	1469.16925063126	1
3	98052	1469.16925063126	0
3	98331	1471.68403646522	1
3	98331	1471.68403646522	0
3	98552	1473.92263701401	1
3	98552	1473.92263701401	0
3	98975	1483.87929886137	1
3	98975	1483.87929886137	0
3	99733	1490.50788046086	1
3	99733	1490.50788046086	0
3	101345	1519.21010824237	1
3	101345	1519.21010824237	0
3	101833	1530.46897535507	1
3	101833	1530.46897535507	0
3	102485	1534.49267429727	1
3	102485	1534.49267429727	0
3	102671	1538.47806863122	1
3	102671	1538.47806863122	0
3	103307	1542.13169926992	1
3	103307	1542.13169926992	0
3	103725	1546.41007734579	1
3	103725	1546.41007734579	0
3	104427	1562.77001286443	1
3	104427	1562.77001286443	0
3	104773	1568.55152561651	1
3	104773	1568.55152561651	0
3	105759	1578.77403172534	1
3	105759	1578.77403172534	0
3	106367	1585.21468198735	1
3	106367	1585.21468198735	0
3	106535	1592.24356523954	1
3	106535	1592.24356523954	0
3	106803	1595.3157159291	1
3	106803	1595.3157159291	0
3	107213	1610.61208506346	1
3	107213	1610.61208506346	0
3	107418	1615.34490734803	1
3	107418	1615.34490734803	0
3	107565	1618.75981933607	1
3	107565	1618.75981933607	0
3	108176	1627.55557955216	1
3	108176	1627.55557955216	0
3	109108	1641.85549918245	1
3	109108	1641.85549918245	0
3	109690	1646.27951369176	1
3	109690	1646.27951369176	0
3	110180	1664.10415928403	1
3	110180	1664.10415928403	0
3	110439	1668.33263867203	1
3	110439	1668.33263867203	0
3	110678	1671.61752819586	1
3	110678	1671.61752819586	0
3	111174	1674.13120665735	1
3	111174	1674.13120665735	0
3	111494	1678.07633344139	1
3	111494	1678.07633344139	0
3	111769	1681.77619545001	1
3	111769	1681.77619545001	0
3	112451	1688.96743038844	1
3	112451	1688.96743038844	0
3	112922	1697.63005060412	1
3	112922	1697.63005060412	0
3	113338	1711.79403408475	1
3	113338	1711.79403408475	0
3	114093	1722.13606460247	1
3	114093	1722.13606460247	0
3	114841	1735.59501628233	1
3	114841	1735.59501628233	0
3	115110	1738.22044717416	1
3	115110	1738.22044717416	0
3	115427	1743.53529883479	1
3	115427	1743.53529883479	0
3	116113	1753.48231263717	1
3	116113	1753.48231263717	0
3	116516	1756.86078265382	1
3	116516	1756.86078265382	0
3	116981	1759.65678712562	1
3	116981	1759.65678712562	0
3	117649	1769.32910143535	1
3	117649	1769.32910143535	0
3	118090	1777.10231898442	1
3	118090	1777.10231898442	0
3	118800	1796.91526225518	1
3	118800	1796.91526225518	0
3	119123	1802.98582533773	1
3	119123	1802.98582533773	0
3	119612	1807.07923587421	1
3	119612	1807.07923587421	0
3	119775	1809.0014398157	1
3	119897	1809.09927194498	0
3	120124	1810.75104275518	1
3	120124	1810.75104275518	0
3	120469	1818.71910849803	1
3	120469	1818.71910849803	0
3	120765	1821.38902466549	1
3	120765	1821.38902466549	0
3	121105	1826.49452739729	1
3	121105	1826.49452739729	0
3	121371	1836.33474476867	1
3	121371	1836.33474476867	0
3	121829	1842.83743020035	1
3	121829	1842.83743020035	0
3	122429	1855.67884689445	1
3	122429	1855.67884689445	0
3	122826	1860.94908100906	1
3	122826	1860.94908100906	0
3	123326	1868.90979707665	1
3	123326	1868.90979707665	0
3	124152	1883.09613229185	1
3	124152	1883.09613229185	0
3	124720	1887.51000274714	1
3	124720	1887.51000274714	0
3	125222	1889.40684948894	1
3	125222	1889.40684948894	0
3	125639	1893.34812970294	1
3	125639	1893.34812970294	0
3	125869	1901.34014759893	1
3	125869	1901.34014759893	0
3	126166	1904.71624034905	1
3	126166	1904.71624034905	0
3	126761	1913.48237064752	1
3	126761	1913.48237064752	0
3	127312	1918.69123602873	1
3	127312	1918.69123602873	0
3	128910	1934.75541883191	1
3	128910	1934.75541883191	0
3	129312	1945.36313922143	1
3	129312	1945.36313922143	0
3	129506	1948.72005739076	1
3	129506	1948.72005739076	0
3	129909	1954.81509497783	1
3	129909	1954.81509497783	0
3	130977	1985.01073688258	1
3	130977	1985.01073688258	0
3	131542	1990.68865337879	1
3	131542	1990.68865337879	0
3	132046	1995.63950933296	1
3	132046	1995.63950933296	0
3	132352	2000.12592720233	1
3	132352	2000.12592720233	0
3	132534	2002.49895048538	1
3	132534	2002.49895048538	0
3	132776	2005.71263039568	1
3	132776	2005.71263039568	0
3	133061	2011.16383005874	1
3	133061	2011.16383005874	0
3	133237	2013.45890904324	1
3	133237	2013.45890904324	0
3	133499	2016.93582242322	1
3	133499	2016.93582242322	0
3	133716	2019.05822329169	1
3	133759	2019.38551242038	0
3	134141	2022.07715126924	1
3	134141	2022.07715126924	0
3	134991	2032.96208629671	1
3	134991	2032.96208629671	0
3	135212	2034.6937592601	1
3	135212	2034.6937592601	0
3	135633	2048.27093649967	1
3	135633	2048.27093649967	0
3	135893	2052.85944007269	1
3	135893	2052.85944007269	0
3	137240	2072.15392940832	1
3	137240	2072.15392940832	0
3	137500	2076.37273250314	1
3	137500	2076.37273250314	0
3	138242	2090.35514342641	1
3	138242	2090.35514342641	0
3	138429	2095.38139500771	1
3	138429	2095.38139500771	0
3	138758	2105.55954785708	1
3	138758	2105.55954785708	0
3	139878	2114.33405290041	1
3	139878	2114.33405290041	0
3	140075	2118.83974605812	1
3	140075	2118.83974605812	0
3	140285	2131.94884647879	1
3	140285	2131.94884647879	0
3	140513	2138.13372130556	1
3	140513	2138.13372130556	0
3	140811	2145.54029348098	1
3	140811	2145.54029348098	0
3	141185	2151.02409605747	1
3	141185	2151.02409605747	0
3	141610	2155.12918738167	1
3	141610	2155.12918738167	0
3	142190	2162.42052306805	1
3	142190	2162.42052306805	0
3	142480	2164.75033643519	1
3	142480	2164.75033643519	0
3	142724	2166.59298802364	1
3	142724	2166.59298802364	0
3	143357	2172.2232927747	1
3	143357	2172.2232927747	0
3	143742	2178.86125802491	1
3	143742	2178.86125802491	0
3	144272	2189.28351566708	1
3	144272	2189.28351566708	0
3	144770	2193.21459103785	1
3	144770	2193.21459103785	0
3	145030	2194.9132716646	1
3	145030	2194.9132716646	0
3	145883	2203.4843241893	1
3	145883	2203.4843241893	0
3	146344	2209.23401619959	1
3	146344	2209.23401619959	0
3	146685	2222.58348337084	1
3	146685	2222.58348337084	0
3	147011	2231.04637151779	1
3	147011	2231.04637151779	0
3	147541	2238.68598879449	1
3	147541	2238.68598879449	0
3	147878	2242.15615294601	1
3	147878	2242.15615294601	0
3	149308	2257.52804938838	1
3	149308	2257.52804938838	0
3	149888	2267.60620499803	1
3	149888	2267.60620499803	0
3	150228	2269.81043576362	1
3	150228	2269.81043576362	0
3	150652	2278.90548579476	1
3	150652	2278.90548579476	0
3	151767	2299.89240516928	1
3	151767	2299.89240516928	0
3	152083	2303.247888246	1
3	152083	2303.247888246	0
3	153071	2319.30069776847	1
3	153071	2319.30069776847	0
3	153483	2334.83120084669	1
3	153483	2334.83120084669	0
3	153725	2337.17838868407	1
3	153725	2337.17838868407	0
3	154454	2342.53895722248	1
3	154454	2342.53895722248	0
3	154803	2350.33018222805	1
3	154803	2350.33018222805	0
3	155179	2355.42100149312	1
3	155179	2355.42100149312	0
3	155339	2357.36392154003	1
3	155339	2357.36392154003	0
3	155931	2365.60305833932	1
3	155931	2365.60305833932	0
3	156169	2372.308250829	1
3	156169	2372.308250829	0
3	156663	2377.43170121736	1
3	156663	2377.43170121736	0
3	157351	2384.50252139028	1
3	157351	2384.50252139028	0
3	157704	2390.68235286965	1
3	157704	2390.68235286965	0
3	158338	2406.40752917192	1
3	158338	2406.40752917192	0
3	158509	2408.2200294221	1
3	158509	2408.2200294221	0
3	158765	2411.0758729161	1
3	158765	2411.0758729161	0
3	159126	2413.35919955941	1
3	159126	2413.35919955941	0
3	159752	2421.272388703	1
3	159752	2421.272388703	0
3	160211	2426.79629890629	1
3	160211	2426.79629890629	0
3	160554	2428.94703077514	1
3	160554	2428.94703077514	0
3	161053	2435.25307341863	1
3	161053	2435.25307341863	0
3	161721	2446.20801845023	1
3	161721	2446.20801845023	0
3	162532	2457.40286195876	1
3	162532	2457.40286195876	0
3	162878	2460.4519785324	1
3	162878	2460.4519785324	0
3	163404	2472.42984720263	1
3	163404	2472.42984720263	0
3	163652	2481.76078568139	1
3	163652	2481.76078568139	0
3	164213	2491.6706379319	1
3	164213	2491.6706379319	0
3	164705	2497.91348121976	1
3	164705	2497.91348121976	0
3	165096	2506.98676688369	1
3	165096	2506.98676688369	0
3	165392	2510.9551085766	1
3	165392	2510.9551085766	0
3	165578	2514.28864266174	1
3	165578	2514.28864266174	0
3	165929	2517.30243857568	1
3	165929	2517.30243857568	0
3	166097	2519.7730586333	1
3	166301	2522.79680276711	0
3	166829	2529.59268142733	1
3	166829	2529.59268142733	0
3	167100	2534.60292378745	1
3	167100	2534.60292378745	0
3	167506	2547.34340361402	1
3	167506	2547.34340361402	0
3	167682	2549.69248132541	1
3	167682	2549.69248132541	0
3	168101	2553.47025334543	1
3	168101	2553.47025334543	0
3	168332	2555.94297505152	1
3	168332	2555.94297505152	0
3	168789	2563.48081379134	1
3	168789	2563.48081379134	0
3	169246	2572.87210751596	1
3	169246	2572.87210751596	0
3	169834	2586.1679299108	1
3	169834	2586.1679299108	0
3	170047	2588.07115461507	1
3	170047	2588.07115461507	0
3	170209	2590.3217086456	1
3	170230	2590.71256327223	0
3	170606	2595.11121382474	1
3	170606	2595.11121382474	0
3	171056	2598.52926040165	1
3	171056	2598.52926040165	0
3	171450	2604.77371418255	1
3	171450	2604.77371418255	0
3	171900	2607.32587598646	1
3	171900	2607.32587598646	0
3	172209	2611.28875029079	1
3	172209	2611.28875029079	0
3	172944	2620.19765207777	1
3	172944	2620.19765207777	0
3	173248	2623.84941090209	1
3	173248	2623.84941090209	0
3	173671	2629.34874264746	1
3	173671	2629.34874264746	0
3	173897	2632.11454826759	1
3	173897	2632.11454826759	0
3	174423	2638.64173342508	1
3	174423	2638.64173342508	0
3	174981	2653.62926022094	1
3	174981	2653.62926022094	0
3	175242	2655.94002912165	1
3	175273	2656.79924951901	0
3	175514	2662.09650173622	1
3	175514	2662.09650173622	0
3	175826	2669.70760603144	1
3	175826	2669.70760603144	0
3	177238	2693.61793804563	1
3	177238	2693.61793804563	0
3	177612	2700.66123455109	1
3	177612	2700.66123455109	0
3	177771	2702.53030939946	1
3	177771	2702.53030939946	0
3	178289	2705.40202591083	1
3	178289	2705.40202591083	0
3	178755	2724.54641155112	1
3	178755	2724.54641155112	0
3	179210	2732.79833910489	1
3	179210	2732.79833910489	0
3	179431	2734.64452688802	1
3	179431	2734.64452688802	0
3	179621	2737.70864948028	1
3	179621	2737.70864948028	0
3	180717	2750.23010714962	1
3	180717	2750.23010714962	0
3	181252	2757.04411292551	1
3	181252	2757.04411292551	0
3	181594	2758.80179780428	1
3	181630	2759.0114802031	0
3	182275	2772.28218693987	1
3	182275	2772.28218693987	0
3	182866	2775.27948606351	1
3	182955	2776.702701324	0
3	183728	2788.4200542321	1
3	183728	2788.4200542321	0
3	184143	2795.76883736743	1
3	184143	2795.76883736743	0
3	184456	2798.92665366232	1
3	184456	2798.92665366232	0
3	184739	2802.48645541918	1
3	184739	2802.48645541918	0
3	185299	2808.22215840341	1
3	185299	2808.22215840341	0
3	185590	2815.94199087471	1
3	185590	2815.94199087471	0
3	185845	2818.62237263632	1
3	185845	2818.62237263632	0
3	186009	2824.19837089059	1
3	186009	2824.19837089059	0
3	186341	2828.0835372871	1
3	186341	2828.0835372871	0
3	186847	2832.3389672436	1
3	186847	2832.3389672436	0
3	187411	2837.57473854151	1
3	187411	2837.57473854151	0
3	188072	2868.52298011828	1
3	188072	2868.52298011828	0
3	189477	2886.86806905354	1
3	189477	2886.86806905354	0
3	189944	2896.76467428459	1
3	189944	2896.76467428459	0
3	190279	2904.65761513586	1
3	190279	2904.65761513586	0
3	190473	2907.75833407922	1
3	190473	2907.75833407922	0
3	190685	2909.99060146133	1
3	190685	2909.99060146133	0
3	190897	2915.85629967412	1
3	190897	2915.85629967412	0
3	191036	2918.49357909556	1
3	191235	2919.83139581161	0
3	191329	2920.58606165142	1
3	191411	2920.90752022003	0
3	191598	2926.92240356935	1
3	191598	2926.92240356935	0
3	191897	2933.17251362349	1
3	191897	2933.17251362349	0
3	192415	2940.74238690135	1
3	192415	2940.74238690135	0
3	192609	2945.44572812507	1
3	192609	2945.44572812507	0
3	193142	2949.08886334857	1
3	193142	2949.08886334857	0
3	193969	2951.86764838943	1
3	193969	2951.86764838943	0
3	194404	2971.06484529768	1
3	194404	2971.06484529768	0
3	194653	2972.99419737468	1
3	194653	2972.99419737468	0
3	195702	2982.15451438003	1
3	195702	2982.15451438003	0
3	196375	2985.63966759408	1
3	196375	2985.63966759408	0
3	196812	2994.00338650616	1
3	196812	2994.00338650616	0
3	197093	2998.02952353567	1
3	197093	2998.02952353567	0
3	197752	3006.94800582444	1
3	197752	3006.94800582444	0
3	198448	3011.84873822719	1
3	198448	3011.84873822719	0
3	198969	3015.97589952592	1
3	198969	3015.97589952592	0
3	199417	3021.79215567737	1
3	199417	3021.79215567737	0
3	199672	3028.05844309647	1
3	199672	3028.05844309647	0
3	200121	3042.70548080885	1
3	200121	3042.70548080885	0
3	200453	3052.03173334619	1
3	200453	3052.03173334619	0
3	201164	3066.73452162028	1
3	201164	3066.73452162028	0
3	201423	3076.36721214149	1
3	201423	3076.36721214149	0
3	201641	3079.03577366105	1
3	201641	3079.03577366105	0
3	201818	3088.09079162603	1
3	201818	3088.09079162603	0
3	202155	3091.3082828369	1
3	202155	3091.3082828369	0
3	202773	3094.52055006316	1
3	202773	3094.52055006316	0
3	203321	3106.53487759372	1
3	203321	3106.53487759372	0
3	203467	3112.22673316405	1
3	203467	3112.22673316405	0
3	203761	3116.75468108598	1
3	203761	3116.75468108598	0
3	204182	3123.39218760985	1
3	204182	3123.39218760985	0
3	204978	3131.71740701067	1
3	204978	3131.71740701067	0
3	205450	3135.62904053772	1
3	205450	3135.62904053772	0
3	205834	3137.64257969027	1
3	205834	3137.64257969027	0
3	206006	3146.63211970801	1
3	206006	3146.63211970801	0
3	206207	3150.72280261154	1
3	206287	3151.62952880143	0
3	206427	3153.10699237633	1
3	206769	3155.01467995307	2
3	206799	3155.28977928007	1
3	206878	3155.9839354182	0
3	207733	3170.7772433059	1
3	207733	3170.7772433059	0
3	207875	3173.23818234848	1
3	207875	3173.23818234848	0
3	208792	3177.20127199487	1
3	208792	3177.20127199487	0
3	209235	3183.01416742504	1
3	209235	3183.01416742504	0
3	209865	3193.72677152493	1
3	209865	3193.72677152493	0
3	210212	3199.39472423167	1
3	210212	3199.39472423167	0
3	210464	3203.10120581567	1
3	210464	3203.10120581567	0
3	210917	3213.18029766134	1
3	210917	3213.18029766134	0
3	211297	3224.72432201409	1
3	211297	3224.72432201409	0
3	212070	3237.60033170747	1
3	212070	3237.60033170747	0
3	212702	3246.25960637302	1
3	212702	3246.25960637302	0
3	212959	3249.22985328425	1
3	212959	3249.22985328425	0
3	213376	3254.85818576578	1
3	213376	3254.85818576578	0
3	213563	3262.84831026572	1
3	213563	3262.84831026572	0
3	213828	3268.26455732994	1
3	213828	3268.26455732994	0
3	214555	3279.79629242806	1
3	214555	3279.79629242806	0
3	214808	3294.21409521216	1
3	214808	3294.21409521216	0
3	215651	3302.07284503955	1
3	215651	3302.07284503955	0
3	217279	3324.81989091564	1
3	217279	3324.81989091564	0
3	217876	3343.46581923627	1
3	217876	3343.46581923627	0
3	218395	3347.81240720991	1
3	218395	3347.81240720991	0
3	218852	3356.43120009749	1
3	218852	3356.43120009749	0
3	219205	3363.58862621667	1
3	219205	3363.58862621667	0
3	219876	3371.23947730166	1
3	219876	3371.23947730166	0
3	220381	3376.56616724136	1
3	220381	3376.56616724136	0
3	220631	3378.67875441589	1
3	220631	3378.67875441589	0
3	221231	3383.8680700216	1
3	221231	3383.8680700216	0
3	221732	3387.64169441721	1
3	221732	3387.64169441721	0
3	222217	3391.55928401232	1
3	222217	3391.55928401232	0
3	222477	3395.27671732936	1
3	222477	3395.27671732936	0
3	223364	3411.28727345835	1
3	223364	3411.28727345835	0
3	223613	3414.71644028245	1
3	223613	3414.71644028245	0
3	223948	3418.04083115207	1
3	223948	3418.04083115207	0
3	224288	3421.95557825911	1
3	224288	3421.95557825911	0
3	224596	3430.93468758469	1
3	224596	3430.93468758469	0
3	224775	3434.21767982316	1
3	224775	3434.21767982316	0
3	225124	3444.25613140572	1
3	225124	3444.25613140572	0
3	225379	3448.33872726421	1
3	225379	3448.33872726421	0
3	225721	3451.65303957616	1
3	225721	3451.65303957616	0
3	226083	3454.00386426527	1
3	226083	3454.00386426527	0
3	226360	3461.76521597445	1
3	226360	3461.76521597445	0
3	226818	3476.55755541727	1
3	226818	3476.55755541727	0
3	227079	3478.65919902131	1
3	227079	3478.65919902131	0
3	227775	3494.20656706284	1
3	227775	3494.20656706284	0
3	227998	3500.28865223785	1
3	227998	3500.28865223785	0
3	228181	3503.07066607214	1
3	228181	3503.07066607214	0
3	228877	3512.90065042933	1
3	228877	3512.90065042933	0
3	229379	3519.5573861281	1
3	229379	3519.5573861281	0
3	230384	3534.86093303505	1
3	230384	3534.86093303505	0
3	230612	3540.56970638309	1
3	230612	3540.56970638309	0
3	231269	3553.59303532099	1
3	231269	3553.59303532099	0
3	232343	3564.7597131891	1
3	232343	3564.7597131891	0
3	233175	3569.97424007764	1
3	233175	3569.97424007764	0
3	233496	3574.44936566563	1
3	233496	3574.44936566563	0
3	233996	3581.20621852098	1
3	233996	3581.20621852098	0
3	234319	3584.77528034648	1
3	234319	3584.77528034648	0
3	235002	3593.08793246992	1
3	235002	3593.08793246992	0
4	11763	82.45702091767	1.71213004444
4	20557	238.20704155535	1.71213062552
4	22295	255.44365478573	1.71213022369
4	23141	264.48297550663	1.71212974521
4	24230	286.06207363364	1.71213293429
4	26992	386.20275957046	1.71213009349
4	34263	443.72930350244	1.71212968144
4	45782	637.62144538484	1.71212974521
4	52878	772.64866833135	1.71213095236
4	75642	1124.81332489909	1.71213108353
4	90538	1357.85875569429	1.71213178728
4	91571	1362.15829107254	1.71213043029
4	93146	1380.14888804823	1.71212974521
4	94218	1397.9880423831	1.71213097222
4	98052	1469.16925063126	1.71213009342
4	101833	1530.46897535507	1.71213002979
4	107418	1615.34490734803	1.71213097222
4	111494	1678.07633344139	1.71213041373
4	115427	1743.53529883479	1.71213071847
4	120124	1810.75104275518	1.71213009349
4	125639	1893.34812970294	1.7121297761
4	129909	1954.81509497783	1.71212974521
4	131542	1990.68865337879	1.71213041357
4	141610	2155.12918738167	1.71212967251
4	147541	2238.68598879449	1.71213131006
4	149888	2267.60620499803	1.7121304353
4	150652	2278.90548579476	1.71213071847
4	159126	2413.35919955941	1.7121308492
4	165578	2514.28864266174	1.71213022369
4	171900	2607.32587598646	1.71213125371
4	172209	2611.28875029079	1.71213066453
4	177238	2693.61793804563	1.71213043246
4	177771	2702.53030939946	1.71213059186
4	178289	2705.40202591083	1.71213320324
4	185845	2818.62237263632	1.71213112593
4	186009	2824.19837089059	1.71213043029
4	187411	2837.57473854151	1.71212968144
4	201641	3079.03577366105	1.71213215588
4	213376	3254.85818576578	1.71213041357
4	214808	3294.21409521216	1.71213272769
4	215651	3302.07284503955	1.71212967251
4	224288	3421.95557825911	1.71213334046
4	225124	3444.25613140572	1.71212968144
5	11763	82.45702091767	1.71213004444
5	20557	238.20704155535	1.71213062552
5	22295	255.44365478573	1.71213022369
5	23141	264.48297550663	1.71212974521
5	24230	286.06207363364	1.71213293429
5	26992	386.20275957046	1.71213009349
5	34263	443.72930350244	1.71212968144
5	45782	637.62144538484	1.71212974521
5	52878	772.64866833135	1.71213095236
5	75642	1124.81332489909	1.71213108353
5	90538	1357.85875569429	1.71213178728
5	91571	1362.15829107254	1.71213043029
5	93146	1380.14888804823	1.71212974521
5	94218	1397.9880423831	1.71213097222
5	98052	1469.16925063126	1.71213009342
5	101833	1530.46897535507	1.71213002979
5	107418	1615.34490734803	1.71213097222
5	111494	1678.07633344139	1.71213041373
5	115427	1743.53529883479	1.71213071847
5	120124	1810.75104275518	1.71213009349
5	125639	1893.34812970294	1.7121297761
5	129909	1954.81509497783	1.71212974521
5	131542	1990.68865337879	1.71213041357
5	141610	2155.12918738167	1.71212967251
5	147541	2238.68598879449	1.71213131006
5	149888	2267.60620499803	1.7121304353
5	150652	2278.90548579476	1.71213071847
5	159126	2413.35919955941	1.7121308492
5	165578	2514.28864266174	1.71213022369
5	171900	2607.32587598646	1.71213125371
5	172209	2611.28875029079	1.71213066453
5	177238	2693.61793804563	1.71213043246
5	177771	2702.53030939946	1.71213059186
5	178289	2705.40202591083	1.71213320324
5	185845	2818.62237263632	1.71213112593
5	186009	2824.19837089059	1.71213043029
5	187411	2837.57473854151	1.71212968144
5	201641	3079.03577366105	1.71213215588
5	213376	3254.85818576578	1.71213041357
5	214808	3294.21409521216	1.71213272769
5	215651	3302.07284503955	1.71212967251
5	224288	3421.95557825911	1.71213334046
5	225124	3444.25613140572	1.71212968144
6	11807	83.34085150278	1534.7570635397
6	23270	266.41737012072	130.61086040763
6	35689	468.10337563182	659.6628792557
6	46847	646.62554315112	614.36003955332
6	59975	862.96150641721	96.05245468737
6	73117	1084.18655391285	384.55547240116
6	85002	1261.43405778018	182.17776381819
6	96459	1447.66305451607	292.83955765921
6	107925	1625.843448809	499.05719461045
6	121200	1834.62261402551	595.86729747527
6	132884	2009.45169931558	86.409130103482
6	145131	2200.03025167576	353.43040820031
6	156529	2376.7040875917	318.50574142604
6	169114	2572.07775735394	74.780159796819
6	180464	2748.51797640646	173.51625538927
6	191427	2925.21027282619	453.2669613323
6	205499	3135.93044894711	612.31258854901
6	216428	3312.69901669686	327.40829829582
6	232990	3568.26210933448	90.896353093723
7	11972	99.30743425225	1526.2262694504
7	23954	284.34994069935	42.90166781786
7	36348	486.05088940217	172.44392117414
7	49119	682.26469478584	235.91814271858
7	61051	892.86981058554	459.23916352832
7	76813	1149.33428024663	1743.1127055003
7	91109	1360.44616064225	29.411446404609
7	102874	1540.41956633563	1154.8224093697
7	113867	1720.42393417218	785.97813816573
7	127634	1922.45143014706	1273.5009852128
7	138278	2093.66926457742	62.269140707289
7	150687	2279.09649216948	781.19852766755
7	162237	2456.56698893254	69.293229693997
7	173945	2635.89206778619	762.98523707832
7	185859	2822.4862404603	29.46883674135
7	197921	3010.04527625427	6.7513244470521
7	209710	3192.01464109464	193.44441364718
7	221239	3384.29847281718	1878.3269185707
7	233772	3579.49408809069	509.50123728509
8	12120	101.01956468254	1.71213043029
8	12353	164.08150593485	1.71213345636
8	12611	180.33244418339	1.71213097222
8	12873	185.18233955065	1.71213209831
8	13016	189.31190727161	1.71213066453
8	13235	191.44114630368	1.84457062774
8	13769	196.48890971026	1.71212967251
8	14521	200.99045569678	1.71213029854
8	14946	203.96251642734	1.71213059186
8	15464	207.65096166802	1.71213131006
8	16242	211.61221527652	1.71213041357
8	17250	215.09585026029	1.71213060676
8	17893	218.36616273059	1.71213101703
8	18697	221.4033052141	1.71213002979
8	19180	226.76157527218	1.71213178728
8	19962	234.38613738669	1.71213005178
8	21228	242.29785133903	1.71213060103
8	21480	245.26719126929	1.7121308492
8	21689	249.39201128446	3.97801316961
8	22882	259.73386009709	1.7121304353
8	23520	268.12950086388	1.71213074316
8	23782	270.78838250048	1.84532651171
8	24375	320.41727665235	1.71213004444
8	24561	334.15759381874	1.71213037669
8	24767	353.10980962011	1.71213095236
8	24959	358.32365280375	1.71213097222
8	25292	373.06482076795	1.71213093979
8	25751	376.92780469838	1.71212967251
8	26441	384.0620774201	1.7121303397
8	28118	389.67487200305	1.71213138371
8	29183	396.23180407393	1.71213002979
8	30545	410.02589785926	1.71213311076
8	32041	419.6251685497	1.7121297761
8	32999	429.42946708643	1.7121313577
8	33525	439.94202706066	1.71212974521
8	34486	445.82441360622	1.71213060103
8	34670	448.38637072868	1.71213072882
8	34818	451.27649311995	1.71213041357
8	35505	460.2912443934	1.71213266403
8	36018	473.2927936663	1.71213313595
8	36656	488.04163441516	1.7121308492
8	36819	499.8993294722	1.71213004444
8	37069	533.34948825007	1.71213347622
8	37769	554.83631767705	1.71212967251
8	38130	561.02481109318	1.71213010761
8	38930	565.0783761715	1.71213009342
8	39427	570.52201323612	1.71213002979
8	40561	579.863730116	1.71213101703
8	40855	582.1292803063	1.71213060676
8	41284	584.96442224394	2.45731348421
8	41510	586.87570815009	1.71213071847
8	42094	591.66947482825	1.71213009349
8	42665	594.89864323845	1.7121297761
8	43216	602.55062703335	1.71213160422
8	43438	612.58331856377	1.71213024864
8	43782	616.06979340476	1.7121304353
8	44130	619.10231901287	1.71213029854
8	44566	626.65454668374	1.71213062552
8	44914	632.51203999444	1.71213060103
8	45142	634.42018119893	1.71212968144
8	46358	639.88988312155	1.71213041373
8	46756	645.18806150605	1.71213072882
8	47062	648.0374219244	1.71213022369
8	47832	652.35319774152	1.71213227685
8	48131	655.48650376741	1.71213255578
8	49064	678.26543809611	1.71213004444
8	49271	683.97682521613	1.71213043029
8	49595	718.40345639434	1.71213066453
8	49780	722.92087787022	1.71213037669
8	50344	742.19581472478	1.71212967251
8	52081	764.31014337194	1.71213097222
8	53277	777.94165572595	1.71213410822
8	54364	793.06085237955	1.71213071847
8	55134	797.77348949298	1.71213134421
8	55695	806.50642836408	1.71212968144
8	56341	810.7492823552	1.7121297761
8	57784	823.66424347892	1.71212974521
8	59620	842.26691583158	1.71213060103
8	59930	855.49089636594	1.71213009349
8	60302	864.67363716037	1.71213074316
8	60671	866.56110370473	1.71213004444
8	61183	893.50474480228	1.71213066453
8	61831	920.93441314605	1.7121328437
8	61975	924.07488636046	1.71213037669
8	62481	929.40324826096	1.71213009342
8	63713	950.53727276467	1.71213117732
8	64043	953.35096021612	1.71213010761
8	65018	970.39269800492	1.71213082717
8	65980	978.35677984959	1.71213002979
8	66250	981.63088922036	1.71213071847
8	66441	987.42456140448	1.71213005178
8	66767	994.54775454302	1.71213024864
8	67597	998.10515983498	1.71213062552
8	68951	1007.36234888822	1.71212967251
8	69695	1016.55590053876	1.71212974521
8	70111	1018.57386789475	1.71213041373
8	70696	1022.40332558746	1.71212968144
8	70998	1025.49076757498	1.71213060103
8	71393	1040.58100910231	1.7121304353
8	71869	1048.05338836343	1.71213254844
8	72430	1057.78175182199	1.7121308492
8	72909	1069.94849187086	1.71213066453
8	73451	1092.33190428165	1.7121313577
8	73621	1094.210636636	1.71213072882
8	73798	1102.0025054078	1.7121303397
8	74069	1104.64749057944	1.71213227276
8	74289	1106.56918794922	1.71213043246
8	75130	1120.077764609	1.71213095236
8	76307	1136.68920421903	1.71213159673
8	76492	1139.78634974235	1.848810293
8	77681	1160.84488604739	1.71213005178
8	77930	1165.1884151457	1.71213002979
8	78336	1170.20830158482	1.71213272769
8	78948	1179.81400806568	1.71213024864
8	79767	1187.08611893136	1.71212967251
8	79996	1189.54468394325	1.71213157664
8	80477	1192.76829730287	1.71213062552
8	80952	1198.18195780881	1.71212974521
8	81412	1200.59845996105	2.12794073642
8	81882	1206.23604595893	1.71212968144
8	82297	1213.73481263448	1.7121297761
8	83473	1229.51912630689	1.71213060103
8	83704	1234.72899622333	1.71213009349
8	83991	1237.35242352212	1.71213125371
8	84555	1247.57740684004	1.7121308492
8	84800	1257.53691117873	1.71213004444
8	85950	1278.86954067876	1.7121303397
8	86740	1295.44810559476	1.71213259742
8	87475	1305.96729712331	1.71213117732
8	87958	1318.34328418457	1.71213010761
8	88840	1328.34358698009	1.71213043246
8	89420	1336.72362555695	1.71213002979
8	89773	1342.84953644942	1.71213005178
8	91068	1360.33198389675	1.71212967251
8	91830	1365.04033380365	1.71213024864
8	92525	1371.75735076578	1.71213060676
8	93750	1388.82410229801	1.71213082717
8	93935	1391.32401399534	1.71213059186
8	94435	1401.15083126783	1.71213041357
8	94629	1406.31921984876	1.71213009349
8	94958	1412.24444040208	1.7121297761
8	95679	1419.33034582775	1.71213218544
8	95872	1423.34387582158	1.71213257573
8	96326	1429.49488346635	1.71213004444
8	96986	1450.56432619477	1.7121304353
8	97366	1458.12330897414	1.71213060103
8	97690	1460.63782167962	1.7121303397
8	97895	1465.97794696478	1.71213243535
8	98331	1471.68403646522	1.71213125371
8	98552	1473.92263701401	1.71213066453
8	98975	1483.87929886137	1.71213037669
8	99733	1490.50788046086	1.71213072882
8	101345	1519.21010824237	1.71213005178
8	102485	1534.49267429727	1.71213071847
8	102671	1538.47806863122	1.71212967251
8	103307	1542.13169926992	1.71213293429
8	103725	1546.41007734579	1.71213093979
8	104427	1562.77001286443	1.71213024864
8	104773	1568.55152561651	1.71212974521
8	105759	1578.77403172534	1.71213082717
8	106367	1585.21468198735	1.71213131006
8	106535	1592.24356523954	1.71213059186
8	106803	1595.3157159291	1.71213062552
8	107213	1610.61208506346	1.71213029854
8	107565	1618.75981933607	1.71213009349
8	108176	1627.55557955216	1.71213074316
8	109108	1641.85549918245	1.7121297761
8	109690	1646.27951369176	1.71212968144
8	110180	1664.10415928403	1.71213358753
8	110439	1668.33263867203	1.71213125371
8	110678	1671.61752819586	1.71213009342
8	111174	1674.13120665735	1.7121303397
8	111769	1681.77619545001	1.7121304353
8	112451	1688.96743038844	1.71213134421
8	112922	1697.63005060412	1.71213037669
8	113338	1711.79403408475	1.71213002979
8	114093	1722.13606460247	1.71213043029
8	114841	1735.59501628233	1.71213093979
8	115110	1738.22044717416	1.7121319671
8	116113	1753.48231263717	1.71213072882
8	116516	1756.86078265382	1.71213124583
8	116981	1759.65678712562	1.71212974521
8	117649	1769.32910143535	1.71212967251
8	118090	1777.10231898442	1.71213101703
8	118800	1796.91526225518	1.71213261161
8	119123	1802.98582533773	1.7121308492
8	119612	1807.07923587421	1.71213029854
8	119897	1809.09927194498	1.80996237792
8	120469	1818.71910849803	1.71213041357
8	120765	1821.38902466549	1.71213097222
8	121105	1826.49452739729	1.71213060103
8	121371	1836.33474476867	1.71213074316
8	121829	1842.83743020035	1.71212968144
8	122429	1855.67884689445	1.7121303397
8	122826	1860.94908100906	1.71213004444
8	123326	1868.90979707665	1.71213041373
8	124152	1883.09613229185	1.7121304353
8	124720	1887.51000274714	1.71213002979
8	125222	1889.40684948894	1.71213009342
8	125869	1901.34014759893	1.71213272543
8	126166	1904.71624034905	1.71213022369
8	126761	1913.48237064752	1.71213005178
8	127312	1918.69123602873	1.71213322247
8	128910	1934.75541883191	1.71213124583
8	129312	1945.36313922143	1.71212967251
8	129506	1948.72005739076	1.71213101703
8	130977	1985.01073688258	1.71213009349
8	132046	1995.63950933296	1.71213024864
8	132352	2000.12592720233	1.71213060103
8	132534	2002.49895048538	1.71213227276
8	132776	2005.71263039568	1.71213010761
8	133061	2011.16383005874	1.71213074316
8	133237	2013.45890904324	1.71213131006
8	133499	2016.93582242322	1.71213097222
8	133759	2019.38551242038	2.03941979322
8	134141	2022.07715126924	1.71212968144
8	134991	2032.96208629671	1.71213117732
8	135212	2034.6937592601	1.71213004444
8	135633	2048.27093649967	1.71213291773
8	135893	2052.85944007269	1.7121313577
8	137240	2072.15392940832	1.71213009342
8	137500	2076.37273250314	1.7121304353
8	138242	2090.35514342641	1.71213005178
8	138429	2095.38139500771	1.71213043029
8	138758	2105.55954785708	1.71213071847
8	139878	2114.33405290041	1.71213043246
8	140075	2118.83974605812	1.71213037669
8	140285	2131.94884647879	1.71213072882
8	140513	2138.13372130556	1.71213022369
8	140811	2145.54029348098	1.71213178728
8	141185	2151.02409605747	1.71212974521
8	142190	2162.42052306805	1.71213002979
8	142480	2164.75033643519	1.71213060676
8	142724	2166.59298802364	1.71213029854
8	143357	2172.2232927747	1.71213291757
8	143742	2178.86125802491	1.71213024864
8	144272	2189.28351566708	1.71213062552
8	144770	2193.21459103785	1.71213060103
8	145030	2194.9132716646	1.71213112593
8	145883	2203.4843241893	1.7121297761
8	146344	2209.23401619959	1.7121303397
8	146685	2222.58348337084	1.71213010761
8	147011	2231.04637151779	1.71213009349
8	147878	2242.15615294601	1.71213260439
8	149308	2257.52804938838	1.71212968144
8	150228	2269.81043576362	1.71213005178
8	151767	2299.89240516928	1.71213288069
8	152083	2303.247888246	1.71213009342
8	153071	2319.30069776847	1.71213072882
8	153483	2334.83120084669	1.71213059186
8	153725	2337.17838868407	1.71213002979
8	154454	2342.53895722248	1.71212967251
8	154803	2350.33018222805	1.71212974521
8	155179	2355.42100149312	1.71213060676
8	155339	2357.36392154003	1.71213029854
8	155931	2365.60305833932	1.71213062552
8	156169	2372.308250829	1.71213024864
8	156663	2377.43170121736	1.7121297761
8	157351	2384.50252139028	1.7121303397
8	157704	2390.68235286965	1.71213112593
8	158338	2406.40752917192	1.71213010761
8	158509	2408.2200294221	1.71213009349
8	158765	2411.0758729161	1.71213041357
8	159752	2421.272388703	1.71213371222
8	160211	2426.79629890629	1.71213066453
8	160554	2428.94703077514	1.71212968144
8	161053	2435.25307341863	1.71213041373
8	161721	2446.20801845023	1.7121304353
8	162532	2457.40286195876	1.71213071847
8	162878	2460.4519785324	1.71213005178
8	163404	2472.42984720263	1.71213093979
8	163652	2481.76078568139	1.71213009342
8	164213	2491.6706379319	1.71213037669
8	164705	2497.91348121976	1.71213004444
8	165096	2506.98676688369	1.71213182285
8	165392	2510.9551085766	1.71213002979
8	165929	2517.30243857568	1.71213059186
8	166301	2522.79680276711	4.73587456627
8	166829	2529.59268142733	1.71212974521
8	167100	2534.60292378745	1.71212967251
8	167506	2547.34340361402	1.71213280254
8	167682	2549.69248132541	1.71213060103
8	168101	2553.47025334543	1.71213159673
8	168332	2555.94297505152	1.71213101703
8	168789	2563.48081379134	1.71213165161
8	169246	2572.87210751596	1.71213024864
8	169834	2586.1679299108	1.71213009349
8	170047	2588.07115461507	1.71213209831
8	170230	2590.71256327223	2.10298473424
8	170606	2595.11121382474	1.71213041357
8	171056	2598.52926040165	1.71213134421
8	171450	2604.77371418255	1.7121297761
8	172944	2620.19765207777	1.71213041373
8	173248	2623.84941090209	1.71213131006
8	173671	2629.34874264746	1.71213112593
8	173897	2632.11454826759	1.71213071847
8	174423	2638.64173342508	1.71213060676
8	174981	2653.62926022094	1.71212968144
8	175273	2656.79924951901	2.57135044914
8	175514	2662.09650173622	1.71213009342
8	175826	2669.70760603144	1.71213344379
8	177612	2700.66123455109	1.71213178728
8	178755	2724.54641155112	1.71213004444
8	179210	2732.79833910489	1.71213060103
8	179431	2734.64452688802	1.71212967251
8	179621	2737.70864948028	1.71213022369
8	180717	2750.23010714962	1.71213074316
8	181252	2757.04411292551	1.71212974521
8	181630	2759.0114802031	1.92181249231
8	182275	2772.28218693987	1.71213124356
8	182955	2776.702701324	3.13534623271
8	183728	2788.4200542321	1.7121297761
8	184143	2795.76883736743	1.71213291773
8	184456	2798.92665366232	1.71213138371
8	184739	2802.48645541918	1.71213134421
8	185299	2808.22215840341	1.71213082717
8	185590	2815.94199087471	1.7121313577
8	186341	2828.0835372871	1.71213005178
8	186847	2832.3389672436	1.7121303397
8	188072	2868.52298011828	1.71213002979
8	189477	2886.86806905354	1.71213072882
8	189944	2896.76467428459	1.71213043246
8	190279	2904.65761513586	1.71213004444
8	190473	2907.75833407922	1.71213071847
8	190685	2909.99060146133	1.71213157664
8	190897	2915.85629967412	1.71213288069
8	191235	2919.83139581161	3.04994693974
8	191411	2920.90752022003	2.03358916964
8	191598	2926.92240356935	1.71213074316
8	191897	2933.17251362349	1.71212967251
8	192415	2940.74238690135	1.71213029854
8	192609	2945.44572812507	1.71213062552
8	193142	2949.08886334857	1.71212974521
8	193969	2951.86764838943	1.71213124356
8	194404	2971.06484529768	1.71213009349
8	194653	2972.99419737468	1.7121297761
8	195702	2982.15451438003	1.71213041357
8	196375	2985.63966759408	1.71213082717
8	196812	2994.00338650616	1.71213010761
8	197093	2998.02952353567	1.71213131006
8	197752	3006.94800582444	1.71213112593
8	198448	3011.84873822719	1.71212968144
8	198969	3015.97589952592	1.71213009342
8	199417	3021.79215567737	1.71213125371
8	199672	3028.05844309647	1.71213060676
8	200121	3042.70548080885	1.7121344711
8	200453	3052.03173334619	1.71213095236
8	201164	3066.73452162028	1.71213002979
8	201423	3076.36721214149	1.71213004444
8	201818	3088.09079162603	1.71213093979
8	202155	3091.3082828369	1.71213072882
8	202773	3094.52055006316	1.71213043246
8	203321	3106.53487759372	1.71213320324
8	203467	3112.22673316405	1.71212967251
8	203761	3116.75468108598	1.71213060103
8	204182	3123.39218760985	1.71213120822
8	204978	3131.71740701067	1.7121308492
8	205450	3135.62904053772	1.71212974521
8	205834	3137.64257969027	1.71213074316
8	206006	3146.63211970801	1.71213124356
8	206287	3151.62952880143	2.61885846265
8	206799	3155.28977928007	3.89491728043
8	206878	3155.9839354182	2.68138684884
8	207733	3170.7772433059	1.71213259749
8	207875	3173.23818234848	1.7121297761
8	208792	3177.20127199487	1.71213108353
8	209235	3183.01416742504	1.71213097222
8	209865	3193.72677152493	1.71213043029
8	210212	3199.39472423167	1.71213010761
8	210464	3203.10120581567	1.71213101703
8	210917	3213.18029766134	1.7121313577
8	211297	3224.72432201409	1.71213066453
8	212070	3237.60033170747	1.71213060676
8	212702	3246.25960637302	1.7121304353
8	212959	3249.22985328425	1.71212968144
8	213563	3262.84831026572	1.71213002979
8	213828	3268.26455732994	1.71213071847
8	214555	3279.79629242806	1.71213043246
8	217279	3324.81989091564	1.71212974521
8	217876	3343.46581923627	1.71213059186
8	218395	3347.81240720991	1.71213310534
8	218852	3356.43120009749	1.7121297761
8	219205	3363.58862621667	1.71213009349
8	219876	3371.23947730166	1.71213010761
8	220381	3376.56616724136	1.71213062552
8	220631	3378.67875441589	1.71213009342
8	221231	3383.8680700216	1.71213060103
8	221732	3387.64169441721	1.71213125371
8	222217	3391.55928401232	1.7121308492
8	222477	3395.27671732936	1.71213005178
8	223364	3411.28727345835	1.71213041373
8	223613	3414.71644028245	1.71213311076
8	223948	3418.04083115207	1.71213117732
8	224596	3430.93468758469	1.71213066453
8	224775	3434.21767982316	1.71213041357
8	225379	3448.33872726421	1.71213002979
8	225721	3451.65303957616	1.7121304353
8	226083	3454.00386426527	1.71213093979
8	226360	3461.76521597445	1.71213112593
8	226818	3476.55755541727	1.71213004444
8	227079	3478.65919902131	1.71213022369
8	227775	3494.20656706284	1.71213160389
8	227998	3500.28865223785	1.71212974521
8	228181	3503.07066607214	1.71212967251
8	228877	3512.90065042933	1.71213178728
8	229379	3519.5573861281	1.71213212713
8	230384	3534.86093303505	1.71213280254
8	230612	3540.56970638309	1.71213037669
8	231269	3553.59303532099	1.71213024864
8	232343	3564.7597131891	1.71213062552
8	233175	3569.97424007764	1.71213074316
8	233496	3574.44936566563	1.71213005178
8	233996	3581.20621852098	1.71213043029
8	234319	3584.77528034648	1.7121297761
8	235002	3593.08793246992	1.71213009342
9	12120	101.01956468254	1.71213043029
9	12353	164.08150593485	1.71213345636
9	12611	180.33244418339	1.71213097222
9	12873	185.18233955065	1.71213209831
9	13016	189.31190727161	1.71213066453
9	13235	191.44114630368	1.84457062774
9	13769	196.48890971026	1.71212967251
9	14521	200.99045569678	1.71213029854
9	14946	203.96251642734	1.71213059186
9	15464	207.65096166802	1.71213131006
9	16242	211.61221527652	1.71213041357
9	17250	215.09585026029	1.71213060676
9	17893	218.36616273059	1.71213101703
9	18697	221.4033052141	1.71213002979
9	19180	226.76157527218	1.71213178728
9	19962	234.38613738669	1.71213005178
9	21228	242.29785133903	1.71213060103
9	21480	245.26719126929	1.7121308492
9	21689	249.39201128446	3.97801316961
9	22882	259.73386009709	1.7121304353
9	23520	268.12950086388	1.71213074316
9	23782	270.78838250048	1.84532651171
9	24375	320.41727665235	1.71213004444
9	24561	334.15759381874	1.71213037669
9	24767	353.10980962011	1.71213095236
9	24959	358.32365280375	1.71213097222
9	25292	373.06482076795	1.71213093979
9	25751	376.92780469838	1.71212967251
9	26441	384.0620774201	1.7121303397
9	28118	389.67487200305	1.71213138371
9	29183	396.23180407393	1.71213002979
9	30545	410.02589785926	1.71213311076
9	32041	419.6251685497	1.7121297761
9	32999	429.42946708643	1.7121313577
9	33525	439.94202706066	1.71212974521
9	34486	445.82441360622	1.71213060103
9	34670	448.38637072868	1.71213072882
9	34818	451.27649311995	1.71213041357
9	35505	460.2912443934	1.71213266403
9	36018	473.2927936663	1.71213313595
9	36656	488.04163441516	1.7121308492
9	36819	499.8993294722	1.71213004444
9	37069	533.34948825007	1.71213347622
9	37769	554.83631767705	1.71212967251
9	38130	561.02481109318	1.71213010761
9	38930	565.0783761715	1.71213009342
9	39427	570.52201323612	1.71213002979
9	40561	579.863730116	1.71213101703
9	40855	582.1292803063	1.71213060676
9	41284	584.96442224394	2.45731348421
9	41510	586.87570815009	1.71213071847
9	42094	591.66947482825	1.71213009349
9	42665	594.89864323845	1.7121297761
9	43216	602.55062703335	1.71213160422
9	43438	612.58331856377	1.71213024864
9	43782	616.06979340476	1.7121304353
9	44130	619.10231901287	1.71213029854
9	44566	626.65454668374	1.71213062552
9	44914	632.51203999444	1.71213060103
9	45142	634.42018119893	1.71212968144
9	46358	639.88988312155	1.71213041373
9	46756	645.18806150605	1.71213072882
9	47062	648.0374219244	1.71213022369
9	47832	652.35319774152	1.71213227685
9	48131	655.48650376741	1.71213255578
9	49064	678.26543809611	1.71213004444
9	49271	683.97682521613	1.71213043029
9	49595	718.40345639434	1.71213066453
9	49780	722.92087787022	1.71213037669
9	50344	742.19581472478	1.71212967251
9	52081	764.31014337194	1.71213097222
9	53277	777.94165572595	1.71213410822
9	54364	793.06085237955	1.71213071847
9	55134	797.77348949298	1.71213134421
9	55695	806.50642836408	1.71212968144
9	56341	810.7492823552	1.7121297761
9	57784	823.66424347892	1.71212974521
9	59620	842.26691583158	1.71213060103
9	59930	855.49089636594	1.71213009349
9	60302	864.67363716037	1.71213074316
9	60671	866.56110370473	1.71213004444
9	61183	893.50474480228	1.71213066453
9	61831	920.93441314605	1.7121328437
9	61975	924.07488636046	1.71213037669
9	62481	929.40324826096	1.71213009342
9	63713	950.53727276467	1.71213117732
9	64043	953.35096021612	1.71213010761
9	65018	970.39269800492	1.71213082717
9	65980	978.35677984959	1.71213002979
9	66250	981.63088922036	1.71213071847
9	66441	987.42456140448	1.71213005178
9	66767	994.54775454302	1.71213024864
9	67597	998.10515983498	1.71213062552
9	68951	1007.36234888822	1.71212967251
9	69695	1016.55590053876	1.71212974521
9	70111	1018.57386789475	1.71213041373
9	70696	1022.40332558746	1.71212968144
9	70998	1025.49076757498	1.71213060103
9	71393	1040.58100910231	1.7121304353
9	71869	1048.05338836343	1.71213254844
9	72430	1057.78175182199	1.7121308492
9	72909	1069.94849187086	1.71213066453
9	73451	1092.33190428165	1.7121313577
9	73621	1094.210636636	1.71213072882
9	73798	1102.0025054078	1.7121303397
9	74069	1104.64749057944	1.71213227276
9	74289	1106.56918794922	1.71213043246
9	75130	1120.077764609	1.71213095236
9	76307	1136.68920421903	1.71213159673
9	76492	1139.78634974235	1.848810293
9	77681	1160.84488604739	1.71213005178
9	77930	1165.1884151457	1.71213002979
9	78336	1170.20830158482	1.71213272769
9	78948	1179.81400806568	1.71213024864
9	79767	1187.08611893136	1.71212967251
9	79996	1189.54468394325	1.71213157664
9	80477	1192.76829730287	1.71213062552
9	80952	1198.18195780881	1.71212974521
9	81412	1200.59845996105	2.12794073642
9	81882	1206.23604595893	1.71212968144
9	82297	1213.73481263448	1.7121297761
9	83473	1229.51912630689	1.71213060103
9	83704	1234.72899622333	1.71213009349
9	83991	1237.35242352212	1.71213125371
9	84555	1247.57740684004	1.7121308492
9	84800	1257.53691117873	1.71213004444
9	85950	1278.86954067876	1.7121303397
9	86740	1295.44810559476	1.71213259742
9	87475	1305.96729712331	1.71213117732
9	87958	1318.34328418457	1.71213010761
9	88840	1328.34358698009	1.71213043246
9	89420	1336.72362555695	1.71213002979
9	89773	1342.84953644942	1.71213005178
9	91068	1360.33198389675	1.71212967251
9	91830	1365.04033380365	1.71213024864
9	92525	1371.75735076578	1.71213060676
9	93750	1388.82410229801	1.71213082717
9	93935	1391.32401399534	1.71213059186
9	94435	1401.15083126783	1.71213041357
9	94629	1406.31921984876	1.71213009349
9	94958	1412.24444040208	1.7121297761
9	95679	1419.33034582775	1.71213218544
9	95872	1423.34387582158	1.71213257573
9	96326	1429.49488346635	1.71213004444
9	96986	1450.56432619477	1.7121304353
9	97366	1458.12330897414	1.71213060103
9	97690	1460.63782167962	1.7121303397
9	97895	1465.97794696478	1.71213243535
9	98331	1471.68403646522	1.71213125371
9	98552	1473.92263701401	1.71213066453
9	98975	1483.87929886137	1.71213037669
9	99733	1490.50788046086	1.71213072882
9	101345	1519.21010824237	1.71213005178
9	102485	1534.49267429727	1.71213071847
9	102671	1538.47806863122	1.71212967251
9	103307	1542.13169926992	1.71213293429
9	103725	1546.41007734579	1.71213093979
9	104427	1562.77001286443	1.71213024864
9	104773	1568.55152561651	1.71212974521
9	105759	1578.77403172534	1.71213082717
9	106367	1585.21468198735	1.71213131006
9	106535	1592.24356523954	1.71213059186
9	106803	1595.3157159291	1.71213062552
9	107213	1610.61208506346	1.71213029854
9	107565	1618.75981933607	1.71213009349
9	108176	1627.55557955216	1.71213074316
9	109108	1641.85549918245	1.7121297761
9	109690	1646.27951369176	1.71212968144
9	110180	1664.10415928403	1.71213358753
9	110439	1668.33263867203	1.71213125371
9	110678	1671.61752819586	1.71213009342
9	111174	1674.13120665735	1.7121303397
9	111769	1681.77619545001	1.7121304353
9	112451	1688.96743038844	1.71213134421
9	112922	1697.63005060412	1.71213037669
9	113338	1711.79403408475	1.71213002979
9	114093	1722.13606460247	1.71213043029
9	114841	1735.59501628233	1.71213093979
9	115110	1738.22044717416	1.7121319671
9	116113	1753.48231263717	1.71213072882
9	116516	1756.86078265382	1.71213124583
9	116981	1759.65678712562	1.71212974521
9	117649	1769.32910143535	1.71212967251
9	118090	1777.10231898442	1.71213101703
9	118800	1796.91526225518	1.71213261161
9	119123	1802.98582533773	1.7121308492
9	119612	1807.07923587421	1.71213029854
9	119897	1809.09927194498	1.80996237792
9	120469	1818.71910849803	1.71213041357
9	120765	1821.38902466549	1.71213097222
9	121105	1826.49452739729	1.71213060103
9	121371	1836.33474476867	1.71213074316
9	121829	1842.83743020035	1.71212968144
9	122429	1855.67884689445	1.7121303397
9	122826	1860.94908100906	1.71213004444
[...]
52	199845	3040.99334633775	352.79087693379
52	211425	3229.47848723699	633.56318566511
52	223697	3416.35033937558	196.66585848359
53	19268	229.42329249791	160.14857051836
53	31269	416.33900021059	68.700938827395
53	43306	612.05016870187	112.15277752467
53	57831	824.07902962216	210.51175838932
53	71954	1050.29335932196	441.94039682641
53	84163	1243.89439945633	96.466751331191
53	99106	1488.15352304688	412.76191065253
53	110704	1672.35775701112	659.51836154336
53	123036	1865.45477145913	323.41969879982
53	137612	2078.15145804435	368.3824031966
53	150081	2269.29378656208	278.05200651491
53	161920	2452.41887847627	465.62495262872
53	173422	2628.4410490321	441.32014275657
53	186196	2827.94661738896	467.2176897583
53	200707	3057.93327723746	8.5243493663619
53	212401	3244.45293746176	1296.7592411958
53	228306	3504.40592316184	522.98457190618
54	19503	232.38429619955	94.47680514338
54	34871	457.2374061715	563.77156339349
54	45983	638.12982763571	194.31770225238
54	58970	834.94108332828	127.76234093131
54	69820	1016.90409898402	508.31049404687
54	81413	1200.93437229731	513.24878284208
54	93194	1380.58266495134	159.94885685236
54	103827	1558.40067439049	762.03271966113
54	115624	1745.84035823929	88.809552046097
54	127956	1926.08662343402	296.93902657907
54	138798	2107.89343540489	1508.8834784242
54	150849	2283.56461870353	432.11323132881
54	166222	2521.7886033623	89.16099343391
54	177956	2703.76294784037	443.21411020146
54	188991	2880.78900288938	149.3392762139
54	200553	3056.29827648493	48.140802903249
54	211739	3233.36512114625	61.124545444894
54	224111	3420.24344491865	1.5005841955667
55	19581	232.67400733491	752.75577970699
55	30879	414.38883934323	451.36772695541
55	47920	653.77437121163	465.97245782801
55	66296	985.7124313527	97.687679443884
55	77458	1159.13275599561	231.89658205157
55	89626	1341.13740639764	323.06193850344
55	101197	1517.49797819059	703.94324711971
55	113128	1711.2072406904	267.8433069015
55	126535	1911.77024059574	852.52040824241
55	138095	2088.64301337463	1526.5936620838
55	149921	2268.09830571184	136.34182369543
55	162724	2458.73984848062	210.18698134335
55	175093	2654.22789906987	351.4345224549
55	186039	2826.37140723532	373.07376066536
55	197762	3008.63472083623	537.11884967411
55	209323	3189.21335446575	1076.586942704
55	222247	3393.56458727758	743.50345688721
55	233192	3572.73723561385	806.66870411954
56	19659	232.70049038749	76.613878944517
56	34949	458.21129942342	749.73614494773
56	45000	633.35057798106	614.50160112669
56	55812	807.6998180731	375.58023324528
56	69068	1007.50150444583	515.78724296893
56	82497	1216.60744129361	240.77298270682
56	99764	1497.97994899002	1824.6469877234
56	110938	1673.36925762813	1153.6520364444
56	124584	1886.90068808879	380.15478992702
56	136850	2069.69396450015	473.46860521374
56	149344	2257.97891200327	114.79796083769
56	162080	2455.61674784972	704.63540304317
56	182121	2770.57005569631	1490.0962491012
56	193426	2950.15551714587	402.21839042373
56	205855	3144.91998846445	318.91173393407
56	217572	3341.5482605241	22.097200748454
56	231635	3561.64168201101	461.51657698652
57	19739	233.64072164897	901.32084367952
57	29714	405.18335315457	227.8022409804
57	40866	582.50710875973	1373.706465283
57	53679	789.30916957354	516.55997850695
57	70821	1023.80236973788	104.38122614074
57	81743	1205.52824028881	518.39062836883
57	93445	1385.38702231873	83.645645078072
57	105866	1579.92331822125	817.55113324808
57	119147	1804.48673522215	640.48332946245
57	133926	2021.94755704633	347.56403505743
57	144602	2193.20114053867	68.462971207211
57	157455	2388.97022174372	977.03991550898
57	173342	2627.63661152153	769.30385352184
57	185669	2816.91024151039	27.12827309757
57	197574	3005.23587469851	683.69774031311
57	212819	3248.55036036538	103.64577958203
57	226188	3460.05308484852	811.43701811043
58	20068	234.66642653078	781.01241658452
58	30720	413.01828755266	187.74995444374
58	41549	587.94668596357	1142.4951652151
58	52255	770.87155424388	30.2184146186
58	64717	968.68056717775	208.10692183932
58	80997	1198.24464820736	66.448033863889
58	93602	1387.11197147084	508.2575343286
58	105374	1577.06190089817	185.50948715103
58	116612	1757.60189889998	214.51758284015
58	129545	1952.19190878142	445.14813315096
58	140978	2150.193854348	559.04266685588
58	160253	2427.02127077194	592.83056737917
58	172341	2615.2345543581	27.216651895955
58	185071	2806.51002757624	366.94381504968
58	196138	2983.92753676691	270.06651117079
58	208541	3176.55864960476	25.931642464495
58	222584	3396.01627442683	543.66780206106
58	234680	3588.2615042525	8.8939246897155
59	20311	236.49491092983	44.259055375946
59	32329	421.77348557273	1.8495384024709
59	44404	624.94241605822	556.06493381818
59	55146	798.55662814947	1011.9027581935
59	66969	996.39302920946	699.65858081026
59	80158	1191.05616667735	255.11506229465
59	91698	1364.95258097892	685.53829190274
59	106561	1593.60358530358	348.42951744188
59	117283	1767.45127143673	180.08564943436
59	131333	1990.45175375005	56.610916120348
59	144033	2187.57138504156	1166.0721131702
59	155614	2363.8909277138	59.97071992642
59	168877	2568.26658556805	1482.5843718303
59	180966	2755.44199991133	367.18457753699
59	192445	2943.73359749955	645.11614747964
59	203590	3115.1294767156	657.99087573674
59	220065	3374.85403661584	745.31618560083
59	231870	3563.04758256358	379.10401161446
60	20394	237.57505064927	1713.0371805624
60	32171	421.19107833735	1075.3147590196
60	45333	635.33824335311	93.695439267499
60	58480	829.06831744824	641.5521131156
60	72120	1055.39037358544	91.754381884935
60	84845	1259.06934064219	369.08156003262
60	97031	1452.93463667926	334.74205006336
60	108338	1629.7263161407	213.98045898411
60	122196	1854.77502193064	261.12180505337
60	135895	2053.00527875217	43.708595869956
60	147049	2232.78608582771	398.18548698486
60	159473	2419.56025499078	647.83076369743
60	176948	2691.04296275194	596.11065063109
60	191938	2933.90752098334	338.14563319742
60	204009	3121.68005640163	938.03293502122
60	215049	3298.87277916031	319.51759283113
60	228965	3514.89362006647	1436.1211127102
61	20577	238.50588674965	421.27516087553
61	33803	441.26820083003	555.65283748873
61	49304	695.15113578211	83.582211595763
61	62098	927.4648636435	1061.3258023371
61	74661	1118.03373137845	957.92191374544
61	88704	1327.44096639291	327.85065138865
61	104903	1572.418912945	156.31058939089
61	116281	1755.32167365659	116.21252666142
61	128358	1931.45140282762	1040.0410580377
61	141056	2150.55169450943	580.32911879134
61	153176	2330.06601221419	138.13800315903
61	166143	2521.3468841647	837.63605071107
61	179900	2740.36082382036	411.06906097058
61	196425	2990.20081782258	205.63328976122
61	207369	3166.745047663	1132.3229914693
61	217982	3344.83167022113	55.457082211541
61	229202	3517.84525400097	451.54595536577
62	20738	239.46548872938	110.76596148693
62	32411	422.42090533476	241.73311730486
62	42716	596.6616048699	85.55906989852
62	52177	770.54316170273	80.697412478349
62	62759	945.30242414213	256.94795606279
62	74739	1118.10028086261	499.37563390664
62	92630	1376.83509177195	119.75180884214
62	105219	1575.72993008236	784.74312265569
62	116771	1758.07771472523	1253.216366223
62	128750	1933.63708896696	223.62444415868
62	140379	2137.68803244059	246.60602311228
62	152359	2311.20056328057	55.459892646276
62	164921	2505.27463506084	161.71083133993
62	180546	2750.19177498546	1637.7908337746
62	191764	2932.64470936068	184.64541914999
62	206890	3158.11295619302	112.22677623538
62	219908	3374.23356970458	360.12994315298
62	231137	3552.00719167634	846.42122137612
63	20896	240.585720738	156.86795307234
63	34304	444.11228300519	680.38529099196
63	44744	630.79990939341	391.61524595039
63	59447	840.55478523055	216.74144666454
63	70743	1023.77863697395	363.39622078101
63	83305	1227.80699570586	1246.9214127271
63	97195	1456.41117837311	179.06994773885
63	109390	1644.12478882112	135.83194377226
63	120854	1824.78239679626	254.83002619173
63	132176	1998.4137966013	113.49555685603
63	144365	2191.50246043682	96.375756933255
63	155535	2363.76562976224	501.5787553569
63	167510	2547.98035072438	245.77714404519
63	178887	2731.08620850386	1179.6164767847
63	191077	2918.87393105039	176.57072773569
63	203512	3115.04255048495	279.66172977527
63	220980	3382.15593942057	1071.3035295556
63	232360	3565.56270882613	10.100040054388
64	21055	241.37343968097	913.42190625023
64	30642	412.9198145612	2032.3707013505
64	41129	584.41259484212	393.96680348643
64	51431	756.87540813129	56.358363636391
64	64067	954.40746229619	688.55833986138
64	76127	1134.9770726223	568.51981103012
64	87651	1315.82883247448	354.06504491408
64	101381	1523.78157238451	404.61553303284
64	119227	1805.33832872747	567.15553793177
64	131099	1988.84219684926	240.49320371139
64	144446	2193.12694450195	1007.9320196862
64	155694	2365.17322926704	1722.0550253692
64	167773	2551.7581217487	972.7770742211
64	179661	2738.0824190922	53.533824998491
64	194780	2976.16565291603	1615.6909402986
64	208621	3177.12376277372	1439.5818538999
64	223068	3402.96252722329	694.52892938268
65	21317	243.55506042009	610.71628039426
65	36426	486.32950356596	1199.2555233014
65	48701	675.14934724899	746.83771705538
65	60131	863.70298688024	8.3923809427656
65	72200	1056.06962097279	494.38487288854
65	84320	1245.86527599084	198.03873328199
65	95876	1424.49934647402	9.5947202379083
65	108179	1628.29852493264	430.08727260523
65	118893	1801.27369448853	1181.0468124623
65	131670	1993.48014918591	1206.8964298079
65	142837	2168.91128091887	684.36976277889
65	158886	2411.64706871021	18.352352854755
65	174025	2636.65257349256	1.2638077380979
65	189994	2902.00421894207	470.51058749547
65	204665	3130.00527616147	178.33663686836
65	221901	3389.84715316312	759.53420274931
65	233349	3573.38361550453	293.16370726199
66	21501	245.41399811485	582.94158958486
66	31589	417.9130387736	1650.3428928749
66	42369	593.18651346235	658.61594496814
66	56047	809.0371525791	1001.7895314833
66	68427	1004.96852850077	459.56092893204
66	82008	1212.02268285838	470.26503369329
66	94749	1410.53231062598	965.92651659294
66	108895	1640.14336940635	74.403956565673
66	125496	1891.63599992684	1.6181711930322
66	145517	2201.7721944132	279.3434268108
66	156370	2375.71957144126	416.70574356909
66	171161	2603.06158440645	338.38462281072
66	183441	2786.707924456	480.61516627241
66	194439	2971.28206759858	138.37475235791
66	207737	3171.52605257238	630.87581969813
66	218567	3354.71907032139	1373.9758395753
66	234026	3583.06315057038	1022.9317736727
67	21691	250.38040789468	56.081549977402
67	32250	421.60668742635	325.75342560938
67	43976	617.48304691937	224.43240164354
67	55969	809.0324566186	146.01479142639
67	67281	997.40902619293	767.47386305742
67	80575	1194.1154795559	135.19892032085
67	92708	1377.75769186399	511.03461329502
67	105529	1577.2909684821	108.75095355779
67	118127	1780.26554303032	861.23683199053
67	130044	1958.8254261585	675.49394683136
67	143156	2171.90893465392	1242.6181914919
67	155371	2359.10216212544	435.97206069186
67	168536	2561.76868213973	237.7150435469
67	180141	2743.49011278441	393.62857060084
67	192937	2948.61539065388	977.90106146742
67	205318	3134.50704193079	1335.491428324
67	216822	3316.12726172058	526.50259475113
67	228545	3508.98207198369	367.86359451595
68	21848	252.41959437029	82.807405406528
68	33008	437.92427799341	152.24670937635
68	46061	638.17775270782	230.02748399086
68	56635	818.49661052114	241.12978347334
68	69742	1016.86173748102	1185.1038857043
68	82658	1217.92546895354	1470.2748228313
68	100234	1504.65566452551	25.662157762486
68	111279	1676.36420302766	27.618288863443
68	123193	1867.19766666292	1217.4746499474
68	135434	2046.55880358194	310.42984325285
68	148127	2247.92665883828	642.80892977946
68	160919	2433.5409430049	222.64756023889
68	172655	2618.48552166404	200.8600082573
68	183867	2794.0567044497	2880.1292290738
68	194517	2972.04837767509	153.25714167632
68	207134	3163.7574117021	177.9648151847
68	223234	3409.57514304462	647.03067307987
69	21927	253.24428442166	419.66109479058
69	32824	427.71733572873	521.42923984721
69	44584	628.41395788402	973.97142754161
69	56402	815.19455898887	252.52048224687
69	73279	1090.61977292395	408.03568027996
69	87303	1305.65835730321	100.19161412124
69	99184	1488.17255916248	1260.3279042294
69	112460	1689.84447819821	298.23539524996
69	123699	1878.29078824343	197.66924699221
69	135640	2051.14730871499	141.87049888798
69	149511	2263.39536437933	159.47962596475
69	163084	2468.36543596824	20.38144928299
69	174511	2639.60719772475	374.90891203177
69	185340	2814.22985951701	397.77776843501
69	197842	3009.01190678848	103.05241756931
69	210742	3211.46816630364	2397.0720424903
69	221322	3385.68370863292	1233.6347666301
69	232102	3564.15650863026	309.25368384426
70	22005	253.73152456204	46.549638679224
70	35027	458.46830196696	227.45959607935
70	46768	646.32529170071	176.29292969267
70	56792	819.27564657872	615.02925209902
70	66811	995.50771860142	121.19678067787
70	78131	1168.49616885713	1232.5191671318
70	90699	1359.1016923748	687.57919633447
70	101955	1532.25555528244	1467.9468873699
70	113379	1712.56959131789	58.614940161545
70	125873	1903.00411012536	600.70009425297
70	140301	2136.42159108187	731.14037026921
70	152904	2318.1468428191	583.95699190007
70	165439	2512.57651243805	35.636393472378
70	179480	2735.99651925659	701.46656443017
70	190899	2916.78144887187	175.58639284906
70	202164	3091.76699468034	434.66829077142
70	214608	3292.50196248447	26.30544246174
70	226862	3476.94706879762	191.99026573754
71	22343	257.03768639111	130.84537401334
71	34495	446.67423999986	580.0671470216
71	46582	643.47593077723	1557.4990875919
71	59635	851.5549619918	150.09088256992
71	73454	1092.49850590718	962.22842241401
71	86826	1299.30170873522	77.394811623527
71	99340	1488.79574973204	432.6984954548
71	115948	1751.77018190835	124.58799804923
71	128199	1929.06235537095	122.88130362994
71	140120	2130.23671574997	789.15528496708
71	152674	2317.58856703965	1215.0424331979
71	164262	2494.92333242469	360.83364583516
71	176072	2680.46734078289	495.39532864852
71	189308	2885.15593832472	389.0773229474
71	201831	3089.59615210808	409.24754304313
71	214895	3298.34102270547	130.07208173336
71	226529	3471.59579532365	353.91430441746
72	22502	258.02172966179	978.86122478917
72	33570	440.32331034494	115.18435419565
72	43559	614.35766296946	394.40141983378
72	54489	794.78155000115	537.66525865364
72	71250	1038.86887866701	1179.2778482587
72	82576	1217.09916822867	5.2084855125711
72	96691	1448.85219575947	650.93346355345
72	111624	1680.06406501471	1502.4152732164
72	123932	1881.38400185655	161.40420137279
72	137275	2074.66060206784	637.97197131774
72	149667	2265.89407456273	14.21857894885
72	161503	2444.49588801493	282.50223128135
72	172735	2619.09325543359	105.9075149457
72	184748	2802.51961828405	732.2799105644
72	198735	3015.37100110006	104.85736488924
72	212479	3244.54747593772	2116.6908729234
72	225498	3449.94090914086	308.0365688144
73	22737	259.37257601581	486.69585486111
73	35844	471.58066053035	605.03209494525
73	48305	663.417110612	286.58079089681
73	61225	894.0825640418	661.89649605383
73	72621	1066.04673033387	417.21360352527
73	85559	1275.96819299415	557.72915615942
73	99262	1488.21129218092	540.13307460946
73	111362	1677.69781642769	427.89621320059
73	123371	1869.72551727224	352.79635960197
73	135721	2052.60574648958	861.05073961653
73	147127	2232.80186398293	676.83874930082
73	164756	2500.24123546321	2437.0692350118
73	177797	2702.95237709408	898.12324412093
73	189489	2887.55546089714	693.09667247235
73	203851	3119.90379325141	92.788699735372
73	216265	3309.57758543523	159.76476346194
73	227210	3485.40197036757	491.04386666771
74	23005	262.77084576142	30.477852368366
74	33086	438.22989731545	643.08327113369
74	45415	635.90931563963	43.034865498939
74	57491	821.95211373371	561.94486745857
74	69488	1014.84377079355	1569.461906789
74	80818	1196.4698280636	533.01793204381
74	92786	1378.43675830302	31.383019267231
74	104564	1566.8393958713	1672.4934139133
74	116691	1757.94465738041	63.757531927644
74	129625	1953.10296523262	3.3487600644996
74	140820	2149.31196631226	642.69453007515
74	154673	2348.61805248284	915.99324855869
74	166621	2527.88055168212	303.0087544375
74	180888	2755.3319831803	790.41104002881
74	192780	2947.37673360336	536.86101364575
74	205160	3133.91691079251	72.644382397748
74	217072	3323.10776117043	506.55309574637
74	227869	3498.57652249264	192.55798222317
75	23190	265.11490934097	6831.2180619669
75	33320	439.60176766592	207.87409728333
75	45903	638.04034322007	258.24303178221
75	58324	828.51345433828	66.41915017944
75	68348	1004.49688748628	389.727453485
75	82164	1213.51505972187	158.79878798737
75	95167	1416.38879786797	498.78425923582
75	109741	1650.18887765018	210.58635092238
75	125072	1888.9171713568	81.80796101381
75	136298	2065.00543976927	352.03918742901
75	152190	2304.94842357009	370.22117371843
75	163764	2486.86740305892	325.98249685208
75	177288	2698.12592266738	280.08651137506
75	188271	2870.60332372879	4104.9989350345
75	200473	3055.39315691003	377.79962975456
75	211505	3230.52915182668	1002.7344085747
75	223778	3417.98914833639	486.37291534939
76	23526	268.94305598877	76.609678201811
76	33962	442.017173821	23.841551680017
76	44920	632.70805151749	286.52303192234
76	55480	804.79429868264	59.468340066442
76	70474	1020.69119590602	174.21435988109
76	81662	1204.52391627749	644.98456626322
76	95325	1417.61821364231	145.826426281
76	109468	1644.56738401032	344.3808671595
76	121537	1841.12530051891	534.55680223211
76	133841	2020.3650215878	287.80478405974
76	149162	2255.81591970694	232.27959829456
76	160332	2427.2349010937	95.658937457218
76	174765	2651.9171305395	50.3799750247
76	187114	2835.86260886007	31.850854419981
76	197999	3010.13660854575	495.7804477466
76	212739	3247.51772360281	517.85601915633
76	224986	3442.54400172428	44.935591935003
77	23876	284.00370929326	1168.2184453741
77	36020	473.33018116613	434.41695784148
77	48133	655.56905977325	1012.3419065674
77	59279	837.03556324487	293.03257387405
77	69155	1009.13646907375	611.77756756367
77	79811	1187.83255236661	461.96667497134
77	90935	1360.15616563644	594.55497240056
77	103312	1542.70781221516	809.05950866873
77	118815	1800.95645783707	591.02048209658
77	131830	1994.10819794055	420.91386796952
77	144111	2189.05563936121	184.45921184186
77	156450	2376.41462844643	1473.367170413
77	168371	2557.32466232684	1597.874714955
77	179042	2732.63784697812	168.14024774498
77	190507	2908.27846988469	784.52861946541
77	202835	3099.12116995983	54.717675285931
77	218908	3360.25453387594	171.47116253869
77	230475	3539.60788049686	73.589402785487
78	24425	332.44546344205	113.66001387691
78	37393	548.30947086362	194.72591168865
78	49641	721.20874749353	873.80473151546
78	61836	922.36275598377	593.2257017562
78	73897	1104.07398555501	304.49317688204
78	86540	1294.06581013459	562.19093460145
78	98685	1482.16716848468	164.55000821297
78	112709	1695.91792022743	492.56447015374
78	124352	1886.11301537863	790.89684435833
78	139930	2117.12761568143	564.32347979189
78	151489	2298.18027228859	445.90009354312
78	163997	2489.95850755521	486.4323998945
78	176228	2681.27681608933	8.1435558675835
78	190697	2914.14416679343	135.8600813651
78	206209	3151.39486199964	1135.528558772
78	218411	3353.75051161626	1050.9156379261
78	230395	3538.8575760064	1380.5977797622
79	27417	387.96274061934	778.19464755692
79	39872	576.5439992603	1417.2529819127
79	55732	807.10996956087	106.23278812352
79	66474	989.62349828672	1009.0526200818
79	78502	1176.82657158214	350.03497735911
79	90124	1349.37235648	3542.6672003145
79	102717	1539.66483343891	55.689556126277
79	114284	1731.25860240317	1017.4815197519
79	126367	1907.37349506755	1835.3204162382
79	137938	2084.93347484887	253.44775146806
79	149746	2266.94855072683	84.932546365505
79	161423	2442.8074207003	1102.0556016611
79	172577	2618.31956850068	1988.8901244029
79	184228	2797.21452227861	323.67386075025
79	195175	2979.16498706319	383.03422461265
79	206465	3153.30254856936	1762.3840582687
79	219987	3374.69599402317	647.66536418304
79	234186	3584.60466603484	226.17934038077

