version 3
run N75-18-20260518-02:27:14-159888
attr configname N75
attr datetime 20260518-02:27:14
attr datetimef 20260518-022714
attr experiment N75
attr inifile omnetpp.ini
attr iterationvars "$0=\"avg\""
attr iterationvarsd avg
attr iterationvarsf avg-
attr measurement "$0=\"avg\""
attr network test2.LoRaNetworkTest
attr processid 159888
attr repetition 18
attr replication #18
attr resultdir results
attr runnumber 18
attr seedset 18
config extends General
config **.numPatients 75
config network test2.LoRaNetworkTest
config sim-time-limit 1h
config warmup-period 60s
config simtime-resolution -11
config repeat 30
config rng-class cMersenneTwister
config record-eventlog false
config **.numPatients 20
config **.HospitalServer.app[0].queueLength:vector.vector-recording true
config **.HospitalServer.app[0].urgentWaitTime:vector.vector-recording true
config **.HospitalServer.app[0].normalWaitTime:vector.vector-recording true
config **.HospitalServer.app[0].urgentEndToEndDelay:vector.vector-recording true
config **.HospitalServer.app[0].normalEndToEndDelay:vector.vector-recording true
config **.loRaNodes[*].app[0].emergencyVariate:vector.vector-recording true
config **.vector-recording false
config **.loRaNodes[0].**.initialX "300m + uniform(-10m, 10m)"
config **.loRaNodes[0].**.initialY "250m + uniform(-8m, 8m)"
config **.loRaNodes[1].**.initialX "450m + uniform(-10m, 10m)"
config **.loRaNodes[1].**.initialY "250m + uniform(-8m, 8m)"
config **.loRaNodes[2].**.initialX "600m + uniform(-10m, 10m)"
config **.loRaNodes[2].**.initialY "250m + uniform(-8m, 8m)"
config **.loRaNodes[3].**.initialX "750m + uniform(-10m, 10m)"
config **.loRaNodes[3].**.initialY "250m + uniform(-8m, 8m)"
config **.loRaNodes[4].**.initialX "900m + uniform(-10m, 10m)"
config **.loRaNodes[4].**.initialY "250m + uniform(-8m, 8m)"
config **.loRaNodes[5].**.initialX "1050m + uniform(-10m, 10m)"
config **.loRaNodes[5].**.initialY "250m + uniform(-8m, 8m)"
config **.loRaNodes[6].**.initialX "1200m + uniform(-10m, 10m)"
config **.loRaNodes[6].**.initialY "250m + uniform(-8m, 8m)"
config **.loRaNodes[7].**.initialX "1350m + uniform(-10m, 10m)"
config **.loRaNodes[7].**.initialY "250m + uniform(-8m, 8m)"
config **.loRaNodes[8].**.initialX "1500m + uniform(-10m, 10m)"
config **.loRaNodes[8].**.initialY "250m + uniform(-8m, 8m)"
config **.loRaNodes[9].**.initialX "1650m + uniform(-10m, 10m)"
config **.loRaNodes[9].**.initialY "250m + uniform(-8m, 8m)"
config **.loRaNodes[10].**.initialX "300m + uniform(-10m, 10m)"
config **.loRaNodes[10].**.initialY "370m + uniform(-8m, 8m)"
config **.loRaNodes[11].**.initialX "450m + uniform(-10m, 10m)"
config **.loRaNodes[11].**.initialY "370m + uniform(-8m, 8m)"
config **.loRaNodes[12].**.initialX "600m + uniform(-10m, 10m)"
config **.loRaNodes[12].**.initialY "370m + uniform(-8m, 8m)"
config **.loRaNodes[13].**.initialX "750m + uniform(-10m, 10m)"
config **.loRaNodes[13].**.initialY "370m + uniform(-8m, 8m)"
config **.loRaNodes[14].**.initialX "900m + uniform(-10m, 10m)"
config **.loRaNodes[14].**.initialY "370m + uniform(-8m, 8m)"
config **.loRaNodes[15].**.initialX "1050m + uniform(-10m, 10m)"
config **.loRaNodes[15].**.initialY "370m + uniform(-8m, 8m)"
config **.loRaNodes[16].**.initialX "1200m + uniform(-10m, 10m)"
config **.loRaNodes[16].**.initialY "370m + uniform(-8m, 8m)"
config **.loRaNodes[17].**.initialX "1350m + uniform(-10m, 10m)"
config **.loRaNodes[17].**.initialY "370m + uniform(-8m, 8m)"
config **.loRaNodes[18].**.initialX "1500m + uniform(-10m, 10m)"
config **.loRaNodes[18].**.initialY "370m + uniform(-8m, 8m)"
config **.loRaNodes[19].**.initialX "1650m + uniform(-10m, 10m)"
config **.loRaNodes[19].**.initialY "370m + uniform(-8m, 8m)"
config **.loRaNodes[20].**.initialX "300m + uniform(-10m, 10m)"
config **.loRaNodes[20].**.initialY "490m + uniform(-8m, 8m)"
config **.loRaNodes[21].**.initialX "450m + uniform(-10m, 10m)"
config **.loRaNodes[21].**.initialY "490m + uniform(-8m, 8m)"
config **.loRaNodes[22].**.initialX "600m + uniform(-10m, 10m)"
config **.loRaNodes[22].**.initialY "490m + uniform(-8m, 8m)"
config **.loRaNodes[23].**.initialX "750m + uniform(-10m, 10m)"
config **.loRaNodes[23].**.initialY "490m + uniform(-8m, 8m)"
config **.loRaNodes[24].**.initialX "900m + uniform(-10m, 10m)"
config **.loRaNodes[24].**.initialY "490m + uniform(-8m, 8m)"
config **.loRaNodes[25].**.initialX "1050m + uniform(-10m, 10m)"
config **.loRaNodes[25].**.initialY "490m + uniform(-8m, 8m)"
config **.loRaNodes[26].**.initialX "1200m + uniform(-10m, 10m)"
config **.loRaNodes[26].**.initialY "490m + uniform(-8m, 8m)"
config **.loRaNodes[27].**.initialX "1350m + uniform(-10m, 10m)"
config **.loRaNodes[27].**.initialY "490m + uniform(-8m, 8m)"
config **.loRaNodes[28].**.initialX "1500m + uniform(-10m, 10m)"
config **.loRaNodes[28].**.initialY "490m + uniform(-8m, 8m)"
config **.loRaNodes[29].**.initialX "1650m + uniform(-10m, 10m)"
config **.loRaNodes[29].**.initialY "490m + uniform(-8m, 8m)"
config **.loRaNodes[30].**.initialX "300m + uniform(-10m, 10m)"
config **.loRaNodes[30].**.initialY "610m + uniform(-8m, 8m)"
config **.loRaNodes[31].**.initialX "450m + uniform(-10m, 10m)"
config **.loRaNodes[31].**.initialY "610m + uniform(-8m, 8m)"
config **.loRaNodes[32].**.initialX "600m + uniform(-10m, 10m)"
config **.loRaNodes[32].**.initialY "610m + uniform(-8m, 8m)"
config **.loRaNodes[33].**.initialX "750m + uniform(-10m, 10m)"
config **.loRaNodes[33].**.initialY "610m + uniform(-8m, 8m)"
config **.loRaNodes[34].**.initialX "900m + uniform(-10m, 10m)"
config **.loRaNodes[34].**.initialY "610m + uniform(-8m, 8m)"
config **.loRaNodes[35].**.initialX "1050m + uniform(-10m, 10m)"
config **.loRaNodes[35].**.initialY "610m + uniform(-8m, 8m)"
config **.loRaNodes[36].**.initialX "1200m + uniform(-10m, 10m)"
config **.loRaNodes[36].**.initialY "610m + uniform(-8m, 8m)"
config **.loRaNodes[37].**.initialX "1350m + uniform(-10m, 10m)"
config **.loRaNodes[37].**.initialY "610m + uniform(-8m, 8m)"
config **.loRaNodes[38].**.initialX "1500m + uniform(-10m, 10m)"
config **.loRaNodes[38].**.initialY "610m + uniform(-8m, 8m)"
config **.loRaNodes[39].**.initialX "1650m + uniform(-10m, 10m)"
config **.loRaNodes[39].**.initialY "610m + uniform(-8m, 8m)"
config **.loRaNodes[40].**.initialX "300m + uniform(-10m, 10m)"
config **.loRaNodes[40].**.initialY "730m + uniform(-8m, 8m)"
config **.loRaNodes[41].**.initialX "450m + uniform(-10m, 10m)"
config **.loRaNodes[41].**.initialY "730m + uniform(-8m, 8m)"
config **.loRaNodes[42].**.initialX "600m + uniform(-10m, 10m)"
config **.loRaNodes[42].**.initialY "730m + uniform(-8m, 8m)"
config **.loRaNodes[43].**.initialX "750m + uniform(-10m, 10m)"
config **.loRaNodes[43].**.initialY "730m + uniform(-8m, 8m)"
config **.loRaNodes[44].**.initialX "900m + uniform(-10m, 10m)"
config **.loRaNodes[44].**.initialY "730m + uniform(-8m, 8m)"
config **.loRaNodes[45].**.initialX "1050m + uniform(-10m, 10m)"
config **.loRaNodes[45].**.initialY "730m + uniform(-8m, 8m)"
config **.loRaNodes[46].**.initialX "1200m + uniform(-10m, 10m)"
config **.loRaNodes[46].**.initialY "730m + uniform(-8m, 8m)"
config **.loRaNodes[47].**.initialX "1350m + uniform(-10m, 10m)"
config **.loRaNodes[47].**.initialY "730m + uniform(-8m, 8m)"
config **.loRaNodes[48].**.initialX "1500m + uniform(-10m, 10m)"
config **.loRaNodes[48].**.initialY "730m + uniform(-8m, 8m)"
config **.loRaNodes[49].**.initialX "1650m + uniform(-10m, 10m)"
config **.loRaNodes[49].**.initialY "730m + uniform(-8m, 8m)"
config **.loRaNodes[50].**.initialX "300m + uniform(-10m, 10m)"
config **.loRaNodes[50].**.initialY "850m + uniform(-8m, 8m)"
config **.loRaNodes[51].**.initialX "450m + uniform(-10m, 10m)"
config **.loRaNodes[51].**.initialY "850m + uniform(-8m, 8m)"
config **.loRaNodes[52].**.initialX "600m + uniform(-10m, 10m)"
config **.loRaNodes[52].**.initialY "850m + uniform(-8m, 8m)"
config **.loRaNodes[53].**.initialX "750m + uniform(-10m, 10m)"
config **.loRaNodes[53].**.initialY "850m + uniform(-8m, 8m)"
config **.loRaNodes[54].**.initialX "900m + uniform(-10m, 10m)"
config **.loRaNodes[54].**.initialY "850m + uniform(-8m, 8m)"
config **.loRaNodes[55].**.initialX "1050m + uniform(-10m, 10m)"
config **.loRaNodes[55].**.initialY "850m + uniform(-8m, 8m)"
config **.loRaNodes[56].**.initialX "1200m + uniform(-10m, 10m)"
config **.loRaNodes[56].**.initialY "850m + uniform(-8m, 8m)"
config **.loRaNodes[57].**.initialX "1350m + uniform(-10m, 10m)"
config **.loRaNodes[57].**.initialY "850m + uniform(-8m, 8m)"
config **.loRaNodes[58].**.initialX "1500m + uniform(-10m, 10m)"
config **.loRaNodes[58].**.initialY "850m + uniform(-8m, 8m)"
config **.loRaNodes[59].**.initialX "1650m + uniform(-10m, 10m)"
config **.loRaNodes[59].**.initialY "850m + uniform(-8m, 8m)"
config **.loRaNodes[60].**.initialX "300m + uniform(-10m, 10m)"
config **.loRaNodes[60].**.initialY "970m + uniform(-8m, 8m)"
config **.loRaNodes[61].**.initialX "450m + uniform(-10m, 10m)"
config **.loRaNodes[61].**.initialY "970m + uniform(-8m, 8m)"
config **.loRaNodes[62].**.initialX "600m + uniform(-10m, 10m)"
config **.loRaNodes[62].**.initialY "970m + uniform(-8m, 8m)"
config **.loRaNodes[63].**.initialX "750m + uniform(-10m, 10m)"
config **.loRaNodes[63].**.initialY "970m + uniform(-8m, 8m)"
config **.loRaNodes[64].**.initialX "900m + uniform(-10m, 10m)"
config **.loRaNodes[64].**.initialY "970m + uniform(-8m, 8m)"
config **.loRaNodes[65].**.initialX "1050m + uniform(-10m, 10m)"
config **.loRaNodes[65].**.initialY "970m + uniform(-8m, 8m)"
config **.loRaNodes[66].**.initialX "1200m + uniform(-10m, 10m)"
config **.loRaNodes[66].**.initialY "970m + uniform(-8m, 8m)"
config **.loRaNodes[67].**.initialX "1350m + uniform(-10m, 10m)"
config **.loRaNodes[67].**.initialY "970m + uniform(-8m, 8m)"
config **.loRaNodes[68].**.initialX "1500m + uniform(-10m, 10m)"
config **.loRaNodes[68].**.initialY "970m + uniform(-8m, 8m)"
config **.loRaNodes[69].**.initialX "1650m + uniform(-10m, 10m)"
config **.loRaNodes[69].**.initialY "970m + uniform(-8m, 8m)"
config **.loRaNodes[70].**.initialX "300m + uniform(-10m, 10m)"
config **.loRaNodes[70].**.initialY "1090m + uniform(-8m, 8m)"
config **.loRaNodes[71].**.initialX "450m + uniform(-10m, 10m)"
config **.loRaNodes[71].**.initialY "1090m + uniform(-8m, 8m)"
config **.loRaNodes[72].**.initialX "600m + uniform(-10m, 10m)"
config **.loRaNodes[72].**.initialY "1090m + uniform(-8m, 8m)"
config **.loRaNodes[73].**.initialX "750m + uniform(-10m, 10m)"
config **.loRaNodes[73].**.initialY "1090m + uniform(-8m, 8m)"
config **.loRaNodes[74].**.initialX "900m + uniform(-10m, 10m)"
config **.loRaNodes[74].**.initialY "1090m + uniform(-8m, 8m)"
config **.HospitalServer.numApps 1
config **.HospitalServer.app[0].typename HospitalServerApp
config **.HospitalServer.app[0].destPort 2000
config **.HospitalServer.app[0].localPort 1000
config **.HospitalServer.app[0].adrMethod "\"avg\""
config **.HospitalServer.**.evaluateADRinServer true
config **.HospitalServer.app[0].queueSize 50
config **.HospitalServer.app[0].expo_rate_lambda 0.83
config **.loRaGateway.numUdpApps 1
config **.loRaGateway.packetForwarder.localPort 2000
config **.loRaGateway.packetForwarder.destPort 1000
config **.loRaGateway.packetForwarder.destAddresses "\"HospitalServer\""
config **.loRaGateway.**.initFromDisplayString false
config **.loRaGateway.**.initialX 544.00m
config **.loRaGateway.**.initialY 544.00m
config **.loRaNodes[*].numApps 1
config **.loRaNodes[*].app[0].typename PatientSensorApp
config **.loRaNodes[*].app[0].expo_rate_lambda 0.00175
config **.loRaNodes[*].app[0].emergencyThreshold 50
config **.loRaNodes[*].**.timeToFirstPacket exponential(24s)
config **.loRaNodes[*].**.timeToNextPacket exponential(24s)
config **.loRaNodes[*].**.numberOfPacketsToSend 0
config **.loRaNodes[*].**initialLoRaSF 12
config **.loRaNodes[*].**initialLoRaTP 14dBm
config **.loRaNodes[*].**initialLoRaBW "125 kHz"
config **.loRaNodes[*].**initialLoRaCR 4
config **.loRaNodes[*].**.initFromDisplayString false
config **.loRaNodes[*].**.evaluateADRinNode true
config **.loRaNodes[*].LoRaNic.radio.energyConsumer.typename LoRaEnergyConsumer
config **.loRaNodes[*].**.energySourceModule "\"^.IdealEpEnergyStorage\""
config **.loRaNodes[*].LoRaNic.radio.energyConsumer.configFile "xmldoc(\"energyConsumptionParam.xml\")"
config **.maxTransmissionDuration 4s
config **.energyDetection -110dBm
config **.radio.radioMediumModule "\"LoRaMedium\""
config **.minInterferenceTime 0s
config **.constraintAreaMinX 0m
config **.constraintAreaMinY 0m
config **.constraintAreaMinZ 0m
config **.constraintAreaMaxZ 0m
config **.constraintAreaMaxX 3000.0m
config **.constraintAreaMaxY 3000.0m

vector 0 LoRaNetworkTest.loRaNodes[66].app[0] emergencyVariate:vector ETV
attr recordingmode vector
attr title "Exponential variate samples"
vector 1 LoRaNetworkTest.loRaNodes[14].app[0] emergencyVariate:vector ETV
attr recordingmode vector
attr title "Exponential variate samples"
vector 2 LoRaNetworkTest.loRaNodes[57].app[0] emergencyVariate:vector ETV
attr recordingmode vector
attr title "Exponential variate samples"
vector 3 LoRaNetworkTest.loRaNodes[53].app[0] emergencyVariate:vector ETV
attr recordingmode vector
attr title "Exponential variate samples"
vector 4 LoRaNetworkTest.HospitalServer.app[0] queueLength:vector ETV
attr recordingmode vector
attr title "Total queue length"
vector 5 LoRaNetworkTest.HospitalServer.app[0] normalWaitTime:vector ETV
attr recordingmode vector
attr title "Normal wait time (s)"
vector 6 LoRaNetworkTest.HospitalServer.app[0] normalEndToEndDelay:vector ETV
attr recordingmode vector
attr title "Normal end-to-end delay (s)"
vector 7 LoRaNetworkTest.loRaNodes[64].app[0] emergencyVariate:vector ETV
attr recordingmode vector
attr title "Exponential variate samples"
vector 8 LoRaNetworkTest.loRaNodes[49].app[0] emergencyVariate:vector ETV
attr recordingmode vector
attr title "Exponential variate samples"
vector 9 LoRaNetworkTest.loRaNodes[6].app[0] emergencyVariate:vector ETV
attr recordingmode vector
attr title "Exponential variate samples"
vector 10 LoRaNetworkTest.loRaNodes[32].app[0] emergencyVariate:vector ETV
attr recordingmode vector
attr title "Exponential variate samples"
vector 11 LoRaNetworkTest.loRaNodes[39].app[0] emergencyVariate:vector ETV
attr recordingmode vector
attr title "Exponential variate samples"
vector 12 LoRaNetworkTest.HospitalServer.app[0] urgentWaitTime:vector ETV
attr recordingmode vector
attr title "Urgent wait time (s)"
vector 13 LoRaNetworkTest.HospitalServer.app[0] urgentEndToEndDelay:vector ETV
attr recordingmode vector
attr title "Urgent end-to-end delay (s)"
vector 14 LoRaNetworkTest.loRaNodes[61].app[0] emergencyVariate:vector ETV
attr recordingmode vector
attr title "Exponential variate samples"
vector 15 LoRaNetworkTest.loRaNodes[69].app[0] emergencyVariate:vector ETV
attr recordingmode vector
attr title "Exponential variate samples"
vector 16 LoRaNetworkTest.loRaNodes[63].app[0] emergencyVariate:vector ETV
attr recordingmode vector
attr title "Exponential variate samples"
vector 17 LoRaNetworkTest.loRaNodes[47].app[0] emergencyVariate:vector ETV
attr recordingmode vector
attr title "Exponential variate samples"
vector 18 LoRaNetworkTest.loRaNodes[21].app[0] emergencyVariate:vector ETV
attr recordingmode vector
attr title "Exponential variate samples"
vector 19 LoRaNetworkTest.loRaNodes[73].app[0] emergencyVariate:vector ETV
attr recordingmode vector
attr title "Exponential variate samples"
vector 20 LoRaNetworkTest.loRaNodes[30].app[0] emergencyVariate:vector ETV
attr recordingmode vector
attr title "Exponential variate samples"
vector 21 LoRaNetworkTest.loRaNodes[20].app[0] emergencyVariate:vector ETV
attr recordingmode vector
attr title "Exponential variate samples"
vector 22 LoRaNetworkTest.loRaNodes[1].app[0] emergencyVariate:vector ETV
attr recordingmode vector
attr title "Exponential variate samples"
vector 23 LoRaNetworkTest.loRaNodes[10].app[0] emergencyVariate:vector ETV
attr recordingmode vector
attr title "Exponential variate samples"
vector 24 LoRaNetworkTest.loRaNodes[58].app[0] emergencyVariate:vector ETV
attr recordingmode vector
attr title "Exponential variate samples"
vector 25 LoRaNetworkTest.loRaNodes[33].app[0] emergencyVariate:vector ETV
attr recordingmode vector
attr title "Exponential variate samples"
vector 26 LoRaNetworkTest.loRaNodes[65].app[0] emergencyVariate:vector ETV
attr recordingmode vector
attr title "Exponential variate samples"
vector 27 LoRaNetworkTest.loRaNodes[9].app[0] emergencyVariate:vector ETV
attr recordingmode vector
attr title "Exponential variate samples"
vector 28 LoRaNetworkTest.loRaNodes[23].app[0] emergencyVariate:vector ETV
attr recordingmode vector
attr title "Exponential variate samples"
vector 29 LoRaNetworkTest.loRaNodes[36].app[0] emergencyVariate:vector ETV
attr recordingmode vector
attr title "Exponential variate samples"
vector 30 LoRaNetworkTest.loRaNodes[62].app[0] emergencyVariate:vector ETV
attr recordingmode vector
attr title "Exponential variate samples"
vector 31 LoRaNetworkTest.loRaNodes[7].app[0] emergencyVariate:vector ETV
attr recordingmode vector
attr title "Exponential variate samples"
vector 32 LoRaNetworkTest.loRaNodes[17].app[0] emergencyVariate:vector ETV
attr recordingmode vector
attr title "Exponential variate samples"
vector 33 LoRaNetworkTest.loRaNodes[51].app[0] emergencyVariate:vector ETV
attr recordingmode vector
attr title "Exponential variate samples"
vector 34 LoRaNetworkTest.loRaNodes[12].app[0] emergencyVariate:vector ETV
attr recordingmode vector
attr title "Exponential variate samples"
vector 35 LoRaNetworkTest.loRaNodes[41].app[0] emergencyVariate:vector ETV
attr recordingmode vector
attr title "Exponential variate samples"
vector 36 LoRaNetworkTest.loRaNodes[38].app[0] emergencyVariate:vector ETV
attr recordingmode vector
attr title "Exponential variate samples"
vector 37 LoRaNetworkTest.loRaNodes[42].app[0] emergencyVariate:vector ETV
attr recordingmode vector
attr title "Exponential variate samples"
vector 38 LoRaNetworkTest.loRaNodes[31].app[0] emergencyVariate:vector ETV
attr recordingmode vector
attr title "Exponential variate samples"
vector 39 LoRaNetworkTest.loRaNodes[25].app[0] emergencyVariate:vector ETV
attr recordingmode vector
attr title "Exponential variate samples"
vector 40 LoRaNetworkTest.loRaNodes[8].app[0] emergencyVariate:vector ETV
attr recordingmode vector
attr title "Exponential variate samples"
vector 41 LoRaNetworkTest.loRaNodes[3].app[0] emergencyVariate:vector ETV
attr recordingmode vector
attr title "Exponential variate samples"
vector 42 LoRaNetworkTest.loRaNodes[43].app[0] emergencyVariate:vector ETV
attr recordingmode vector
attr title "Exponential variate samples"
vector 43 LoRaNetworkTest.loRaNodes[37].app[0] emergencyVariate:vector ETV
attr recordingmode vector
attr title "Exponential variate samples"
vector 44 LoRaNetworkTest.loRaNodes[48].app[0] emergencyVariate:vector ETV
attr recordingmode vector
attr title "Exponential variate samples"
vector 45 LoRaNetworkTest.loRaNodes[70].app[0] emergencyVariate:vector ETV
attr recordingmode vector
attr title "Exponential variate samples"
vector 46 LoRaNetworkTest.loRaNodes[40].app[0] emergencyVariate:vector ETV
attr recordingmode vector
attr title "Exponential variate samples"
vector 47 LoRaNetworkTest.loRaNodes[15].app[0] emergencyVariate:vector ETV
attr recordingmode vector
attr title "Exponential variate samples"
vector 48 LoRaNetworkTest.loRaNodes[27].app[0] emergencyVariate:vector ETV
attr recordingmode vector
attr title "Exponential variate samples"
vector 49 LoRaNetworkTest.loRaNodes[59].app[0] emergencyVariate:vector ETV
attr recordingmode vector
attr title "Exponential variate samples"
vector 50 LoRaNetworkTest.loRaNodes[0].app[0] emergencyVariate:vector ETV
attr recordingmode vector
attr title "Exponential variate samples"
vector 51 LoRaNetworkTest.loRaNodes[54].app[0] emergencyVariate:vector ETV
attr recordingmode vector
attr title "Exponential variate samples"
vector 52 LoRaNetworkTest.loRaNodes[5].app[0] emergencyVariate:vector ETV
attr recordingmode vector
attr title "Exponential variate samples"
vector 53 LoRaNetworkTest.loRaNodes[72].app[0] emergencyVariate:vector ETV
attr recordingmode vector
attr title "Exponential variate samples"
vector 54 LoRaNetworkTest.loRaNodes[2].app[0] emergencyVariate:vector ETV
attr recordingmode vector
attr title "Exponential variate samples"
vector 55 LoRaNetworkTest.loRaNodes[4].app[0] emergencyVariate:vector ETV
attr recordingmode vector
attr title "Exponential variate samples"
vector 56 LoRaNetworkTest.loRaNodes[50].app[0] emergencyVariate:vector ETV
attr recordingmode vector
attr title "Exponential variate samples"
vector 57 LoRaNetworkTest.loRaNodes[68].app[0] emergencyVariate:vector ETV
attr recordingmode vector
attr title "Exponential variate samples"
vector 58 LoRaNetworkTest.loRaNodes[22].app[0] emergencyVariate:vector ETV
attr recordingmode vector
attr title "Exponential variate samples"
vector 59 LoRaNetworkTest.loRaNodes[13].app[0] emergencyVariate:vector ETV
attr recordingmode vector
attr title "Exponential variate samples"
vector 60 LoRaNetworkTest.loRaNodes[74].app[0] emergencyVariate:vector ETV
attr recordingmode vector
attr title "Exponential variate samples"
vector 61 LoRaNetworkTest.loRaNodes[55].app[0] emergencyVariate:vector ETV
attr recordingmode vector
attr title "Exponential variate samples"
vector 62 LoRaNetworkTest.loRaNodes[28].app[0] emergencyVariate:vector ETV
attr recordingmode vector
attr title "Exponential variate samples"
vector 63 LoRaNetworkTest.loRaNodes[18].app[0] emergencyVariate:vector ETV
attr recordingmode vector
attr title "Exponential variate samples"
vector 64 LoRaNetworkTest.loRaNodes[26].app[0] emergencyVariate:vector ETV
attr recordingmode vector
attr title "Exponential variate samples"
vector 65 LoRaNetworkTest.loRaNodes[11].app[0] emergencyVariate:vector ETV
attr recordingmode vector
attr title "Exponential variate samples"
vector 66 LoRaNetworkTest.loRaNodes[16].app[0] emergencyVariate:vector ETV
attr recordingmode vector
attr title "Exponential variate samples"
vector 67 LoRaNetworkTest.loRaNodes[44].app[0] emergencyVariate:vector ETV
attr recordingmode vector
attr title "Exponential variate samples"
vector 68 LoRaNetworkTest.loRaNodes[24].app[0] emergencyVariate:vector ETV
attr recordingmode vector
attr title "Exponential variate samples"
vector 69 LoRaNetworkTest.loRaNodes[67].app[0] emergencyVariate:vector ETV
attr recordingmode vector
attr title "Exponential variate samples"
vector 70 LoRaNetworkTest.loRaNodes[19].app[0] emergencyVariate:vector ETV
attr recordingmode vector
attr title "Exponential variate samples"
vector 71 LoRaNetworkTest.loRaNodes[52].app[0] emergencyVariate:vector ETV
attr recordingmode vector
attr title "Exponential variate samples"
vector 72 LoRaNetworkTest.loRaNodes[60].app[0] emergencyVariate:vector ETV
attr recordingmode vector
attr title "Exponential variate samples"
vector 73 LoRaNetworkTest.loRaNodes[45].app[0] emergencyVariate:vector ETV
attr recordingmode vector
attr title "Exponential variate samples"
vector 74 LoRaNetworkTest.loRaNodes[71].app[0] emergencyVariate:vector ETV
attr recordingmode vector
attr title "Exponential variate samples"
vector 75 LoRaNetworkTest.loRaNodes[35].app[0] emergencyVariate:vector ETV
attr recordingmode vector
attr title "Exponential variate samples"
vector 76 LoRaNetworkTest.loRaNodes[29].app[0] emergencyVariate:vector ETV
attr recordingmode vector
attr title "Exponential variate samples"
vector 77 LoRaNetworkTest.loRaNodes[46].app[0] emergencyVariate:vector ETV
attr recordingmode vector
attr title "Exponential variate samples"
vector 78 LoRaNetworkTest.loRaNodes[34].app[0] emergencyVariate:vector ETV
attr recordingmode vector
attr title "Exponential variate samples"
vector 79 LoRaNetworkTest.loRaNodes[56].app[0] emergencyVariate:vector ETV
attr recordingmode vector
attr title "Exponential variate samples"
0	11127	63.9005718693	423.56832048929
0	22237	260.61728214511	1011.7181388832
0	33735	438.39127244566	344.43263288514
0	44509	617.51076342631	36.671501988374
0	55484	803.73316009635	592.65386394047
0	66980	980.2445885833	4.1528056268078
0	79487	1171.23202772424	1148.3085456636
0	91101	1347.90014710761	435.29094677314
0	105167	1560.12834430592	647.92060773359
0	117028	1753.95510744481	769.13265044439
0	128114	1928.3038126326	712.63016118776
0	141150	2122.51603213706	317.32941682608
0	152806	2310.29035542091	528.84914231223
0	163421	2488.21769219879	914.79999868183
0	175664	2680.71564862651	1521.7429210562
0	187527	2860.57259268384	190.00380882538
0	201114	3061.77643777127	596.36604472299
0	212966	3233.78031400086	1296.1127924646
0	223085	3407.20310425239	90.582185431392
0	234554	3579.31176091552	1407.7714287423
1	11205	64.88789656432	283.89012750316
1	24086	283.66027752205	3191.4808352277
1	36236	485.72045354731	183.37077264502
1	48383	680.28461084992	117.25549417021
1	60007	865.26758152575	156.66537328431
1	71830	1059.37443806125	42.212230947037
1	90416	1332.91772540164	80.616427996037
1	105251	1561.60112150279	1251.6808171192
1	118522	1775.6819006031	182.32475522878
1	131056	1966.41797930877	138.04983815855
1	142615	2141.50450999467	114.82588568046
1	153299	2313.85452361369	712.0337951994
1	165222	2502.55175882241	477.32008038926
1	175399	2674.42390975127	309.87463884818
1	192287	2920.60353164207	11.568812424628
1	202995	3096.6245466124	296.29721811403
1	215020	3277.73288849623	539.83036407688
1	226879	3463.50016153485	584.41116101646
2	11445	72.90961851386	1799.913406579
2	23472	273.60540306595	788.18506852492
2	36973	507.22978833573	268.45696807049
2	49432	710.84332051222	51.574622150324
2	61091	891.76569812814	11.408166312452
2	74399	1108.98682631281	1788.3248637908
2	86747	1295.22391846465	539.55471022032
2	99098	1485.60985959292	516.29026946705
2	110835	1673.01885901771	646.49555319845
2	121965	1845.78395825252	1703.7611434701
2	133925	2025.88772293319	38.846650048052
2	146826	2210.77067986649	144.30407214525
2	159663	2406.15999866388	181.79680017191
2	173981	2641.99810791942	902.77811493729
2	186028	2823.1773713929	156.32563765711
2	198162	3005.33993174577	357.833438795
2	209468	3179.53653817979	253.16154315122
2	224242	3425.75536222533	27.9135329686
3	11600	76.50155260631	265.42184546357
3	21738	254.17093482854	976.78197969477
3	34897	461.93984488987	581.87852082376
3	46381	645.09502679439	198.04674457964
3	58261	835.55869885159	420.5872411532
3	69864	1022.15880315572	194.22662516984
3	83231	1222.5019813221	403.52552673016
3	95184	1408.40245473	187.56104329886
3	107647	1609.5207305747	384.69639986708
3	119869	1799.90723237312	239.59774478449
3	132052	1976.55971300608	67.120485055637
3	144278	2168.03402509455	808.95676601824
3	155867	2345.8454855388	17.651067555517
3	166568	2519.37842622895	2428.2990271901
3	179825	2721.29354031803	1426.4851201299
3	191599	2914.05433959105	1660.0922575119
3	202666	3087.75694494367	27.645384722743
3	214196	3271.27292835982	249.36676906047
3	225816	3446.68565963353	86.689650257852
4	11764	78.21368325156	1
4	11764	78.21368325156	0
4	12541	181.89186310576	1
4	12541	181.89186310576	0
4	12934	187.76933051973	1
4	12934	187.76933051973	0
4	13882	192.1063738001	1
4	13882	192.1063738001	0
4	14719	195.23496365122	1
4	14719	195.23496365122	0
4	15064	197.73450668717	1
4	15064	197.73450668717	0
4	15577	202.74769647413	1
4	15577	202.74769647413	0
4	15905	205.89032072622	1
4	15905	205.89032072622	0
4	16703	208.62459911816	1
4	16703	208.62459911816	0
4	18175	219.41857530044	1
4	18175	219.41857530044	0
4	19021	222.54617593798	1
4	19021	222.54617593798	0
4	19974	228.6308965638	1
4	19974	228.6308965638	0
4	20260	231.61565538867	1
4	20260	231.61565538867	0
4	20626	235.20818095306	1
4	20706	235.47734420924	0
4	21160	239.32607510996	1
4	21160	239.32607510996	0
4	21387	241.5144133918	1
4	21387	241.5144133918	0
4	21729	252.63867102163	1
4	21729	252.63867102163	0
4	21903	255.88306547379	1
4	21903	255.88306547379	0
4	22464	262.15032758432	1
4	22464	262.15032758432	0
4	22914	267.22524597533	1
4	22914	267.22524597533	0
4	23888	277.24505861684	1
4	23888	277.24505861684	0
4	24075	280.54983530948	1
4	24075	280.54983530948	0
4	24254	285.37240823045	1
4	24254	285.37240823045	0
4	24788	303.47651679636	1
4	24788	303.47651679636	0
4	24933	355.37004398511	1
4	24933	355.37004398511	0
4	25345	369.9522073683	1
4	25345	369.9522073683	0
4	26171	374.82784411828	1
4	26171	374.82784411828	0
4	26492	376.57966900046	1
4	26492	376.57966900046	0
4	26929	381.46486884921	1
4	26929	381.46486884921	0
4	27124	383.83881168517	1
4	27124	383.83881168517	0
4	27606	388.72782601383	1
4	27606	388.72782601383	0
4	28025	390.78378017785	1
4	28025	390.78378017785	0
4	28690	393.78496490961	1
4	28690	393.78496490961	0
4	29753	398.18621879677	1
4	29753	398.18621879677	0
4	30106	400.33359876928	1
4	30106	400.33359876928	0
4	30585	404.0824419562	1
4	30585	404.0824419562	0
4	31001	406.80917433652	1
4	31001	406.80917433652	0
4	31431	409.68300830976	1
4	31431	409.68300830976	0
4	31727	415.48898182844	1
4	31727	415.48898182844	0
4	31959	417.99274286094	1
4	31959	417.99274286094	0
4	32250	419.81811002402	1
4	32250	419.81811002402	0
4	32700	425.30341384305	1
4	32700	425.30341384305	0
4	33161	430.31043238483	1
4	33161	430.31043238483	0
4	33381	432.18770283644	1
4	33381	432.18770283644	0
4	33522	434.01236810342	1
4	33522	434.01236810342	0
4	33910	440.10340444183	1
4	33910	440.10340444183	0
4	34543	451.49028904737	1
4	34543	451.49028904737	0
4	35214	463.65197553512	1
4	35214	463.65197553512	0
4	35861	471.09520308088	1
4	35861	471.09520308088	0
4	36146	478.12298553423	1
4	36146	478.12298553423	0
4	36401	487.43258425571	1
4	36401	487.43258425571	0
4	37503	535.30814344553	1
4	37503	535.30814344553	0
4	37911	558.75552563517	1
4	37911	558.75552563517	0
4	38698	564.53529890189	1
4	38698	564.53529890189	0
4	39194	567.58833694213	1
4	39194	567.58833694213	0
4	39841	573.0316461165	1
4	39841	573.0316461165	0
4	40603	577.30644397746	1
4	40603	577.30644397746	0
4	41648	588.46755186384	1
4	41648	588.46755186384	0
4	41993	590.98936969686	1
4	41993	590.98936969686	0
4	42800	596.81626636947	1
4	42800	596.81626636947	0
4	43344	605.47490893305	1
4	43344	605.47490893305	0
4	43651	608.09602426917	1
4	43651	608.09602426917	0
4	44303	615.02873129839	1
4	44303	615.02873129839	0
4	44804	619.53270682708	1
4	44804	619.53270682708	0
4	45140	622.56348275162	1
4	45140	622.56348275162	0
4	45367	624.33805113315	1
4	45367	624.33805113315	0
4	45999	633.9465024467	1
4	45999	633.9465024467	0
4	46214	639.42203269697	1
4	46214	639.42203269697	0
4	46545	646.80715743964	1
4	46545	646.80715743964	0
4	46891	651.96582138191	1
4	46891	651.96582138191	0
4	47364	655.13426300556	1
4	47364	655.13426300556	0
4	48293	672.96113796382	1
4	48293	672.96113796382	0
4	48738	683.07226068142	1
4	48738	683.07226068142	0
4	48918	692.92071861131	1
4	48918	692.92071861131	0
4	49257	698.98197967079	1
4	49257	698.98197967079	0
4	49805	716.64709660526	1
4	49805	716.64709660526	0
4	50373	735.63589938144	1
4	50373	735.63589938144	0
4	50583	738.94792565651	1
4	50583	738.94792565651	0
4	50912	742.32022996144	1
4	50912	742.32022996144	0
4	51404	748.347005632	1
4	51404	748.347005632	0
4	52061	758.19883889667	1
4	52061	758.19883889667	0
4	52869	769.71288259709	1
4	52869	769.71288259709	0
4	53443	772.98962616943	1
4	53443	772.98962616943	0
4	53715	775.7833728281	1
4	53715	775.7833728281	0
4	54317	785.91633829986	1
4	54317	785.91633829986	0
4	55030	791.67467839339	1
4	55030	791.67467839339	0
4	55683	803.87602346272	1
4	55683	803.87602346272	0
4	56064	808.90089004651	1
4	56064	808.90089004651	0
4	56369	815.85419690976	1
4	56369	815.85419690976	0
4	56757	819.35153733	1
4	56757	819.35153733	0
4	56934	821.97517537771	1
4	56934	821.97517537771	0
4	57975	832.26602278375	1
4	57975	832.26602278375	0
4	58558	836.27465136721	1
4	58558	836.27465136721	0
4	59553	850.4508122466	1
4	59553	850.4508122466	0
4	59737	855.04184481327	1
4	59737	855.04184481327	0
4	60250	866.97971223415	1
4	60250	866.97971223415	0
4	60444	871.30273703241	1
4	60444	871.30273703241	0
4	61422	897.5952397676	1
4	61422	897.5952397676	0
4	61567	902.71078828493	1
4	61567	902.71078828493	0
4	61746	908.24311240095	1
4	61746	908.24311240095	0
4	62258	921.1941494011	1
4	62258	921.1941494011	0
4	62494	924.35043011697	1
4	62494	924.35043011697	0
4	62668	928.12994594463	1
4	62668	928.12994594463	0
4	63487	936.51472802631	1
4	63487	936.51472802631	0
4	64734	947.81121593876	1
4	64734	947.81121593876	0
4	65318	951.43886219302	1
4	65318	951.43886219302	0
4	65677	960.46305973379	1
4	65677	960.46305973379	0
4	66029	964.65789508897	1
4	66029	964.65789508897	0
4	66586	969.93877907445	1
4	66586	969.93877907445	0
4	66809	972.01835658983	1
4	66809	972.01835658983	0
4	67286	982.04014150961	1
4	67286	982.04014150961	0
4	67452	985.56525484862	1
4	67452	985.56525484862	0
4	68269	993.76483852948	1
4	68269	993.76483852948	0
4	68477	996.11582903095	1
4	68477	996.11582903095	0
4	68834	1001.53107967862	1
4	68834	1001.53107967862	0
4	68989	1006.52300474972	1
4	68989	1006.52300474972	0
4	69264	1008.60337550295	1
4	69277	1008.75936397076	0
4	69527	1011.0184807856	1
4	69527	1011.0184807856	0
4	70105	1023.87093380097	1
4	70105	1023.87093380097	0
4	70907	1036.31917731367	1
4	70907	1036.31917731367	0
4	71160	1042.56500947109	1
4	71160	1042.56500947109	0
4	71405	1045.57862602023	1
4	71405	1045.57862602023	0
4	71555	1051.15580598486	1
4	71555	1051.15580598486	0
4	72074	1061.08656876965	1
4	72074	1061.08656876965	0
4	72494	1064.88075922656	1
4	72494	1064.88075922656	0
4	72891	1080.45718799619	1
4	72891	1080.45718799619	0
4	73104	1083.44348607468	1
4	73104	1083.44348607468	0
4	73286	1087.19976951239	1
4	73286	1087.19976951239	0
4	73669	1094.42135223485	1
4	73669	1094.42135223485	0
4	73932	1099.4276848213	1
4	73932	1099.4276848213	0
4	74202	1102.78580763543	1
4	74202	1102.78580763543	0
4	74571	1109.76426875897	1
4	74571	1109.76426875897	0
4	74988	1115.71234789608	1
4	74988	1115.71234789608	0
4	75357	1118.1309731286	1
4	75732	1122.41018638346	0
4	76336	1124.48264195035	1
4	76336	1124.48264195035	0
4	76753	1126.56531935388	1
4	76796	1127.46977461758	0
4	76974	1134.87827668418	1
4	76974	1134.87827668418	0
4	77135	1137.09985032504	1
4	77135	1137.09985032504	0
4	77486	1140.88444116054	1
4	77486	1140.88444116054	0
4	77729	1143.7860351873	1
4	77729	1143.7860351873	0
4	78511	1156.07468284895	1
4	78511	1156.07468284895	0
4	78670	1157.79167540106	1
4	78670	1157.79167540106	0
4	78837	1162.88791698292	1
4	78837	1162.88791698292	0
4	79404	1170.22954911036	1
4	79404	1170.22954911036	0
4	79868	1173.56331470723	1
4	79868	1173.56331470723	0
4	80687	1189.13105120989	1
4	80687	1189.13105120989	0
4	80873	1193.60165269052	1
4	80873	1193.60165269052	0
4	81294	1198.31081759986	1
4	81294	1198.31081759986	0
4	81800	1203.75861197515	1
4	81800	1203.75861197515	0
4	82539	1209.47291783315	1
4	82539	1209.47291783315	0
4	83064	1216.28498635721	1
4	83064	1216.28498635721	0
4	83395	1224.21411196735	1
4	83395	1224.21411196735	0
4	83801	1236.28507548651	1
4	83801	1236.28507548651	0
4	84061	1242.5313734572	1
4	84061	1242.5313734572	0
4	84249	1248.34928561333	1
4	84249	1248.34928561333	0
4	85127	1281.56392805628	1
4	85127	1281.56392805628	0
4	85865	1288.43077051674	1
4	85865	1288.43077051674	0
4	86499	1291.84481406507	1
4	86499	1291.84481406507	0
4	87125	1297.54584192333	1
4	87125	1297.54584192333	0
4	87389	1300.1352062915	1
4	87389	1300.1352062915	0
4	87975	1303.96236529348	1
4	87975	1303.96236529348	0
4	88631	1316.742146569	1
4	88631	1316.742146569	0
4	89210	1321.29356464151	1
4	89210	1321.29356464151	0
4	89555	1324.93520846455	1
4	89555	1324.93520846455	0
4	90328	1331.48169596745	1
4	90328	1331.48169596745	0
4	90589	1334.62985611004	1
4	90589	1334.62985611004	0
4	91049	1345.94429827221	1
4	91049	1345.94429827221	0
4	91281	1349.61227910378	1
4	91281	1349.61227910378	0
4	91445	1355.35766649509	1
4	91445	1355.35766649509	0
4	93229	1376.98170013419	1
4	93229	1376.98170013419	0
4	93876	1380.1128204412	1
4	93876	1380.1128204412	0
4	95423	1410.11458537525	1
4	95423	1410.11458537525	0
4	96201	1430.55184874687	1
4	96201	1430.55184874687	0
4	96358	1434.28783389673	1
4	96358	1434.28783389673	0
4	96952	1447.80443554659	1
4	96952	1447.80443554659	0
4	97380	1464.29571027881	1
4	97380	1464.29571027881	0
4	97680	1466.52335506256	1
4	97718	1467.55863878788	0
4	98258	1478.38616121537	1
4	98258	1478.38616121537	0
4	99272	1486.582401623	1
4	99272	1486.582401623	0
4	99579	1491.68540849231	1
4	99579	1491.68540849231	0
4	100321	1496.07855755537	1
4	100350	1497.00840206883	0
4	100534	1503.11345919611	1
4	100534	1503.11345919611	0
4	100992	1510.30863135442	1
4	100992	1510.30863135442	0
4	101177	1512.35145903335	1
4	101219	1512.92562765732	0
4	101359	1519.84493017213	1
4	101359	1519.84493017213	0
4	101541	1524.23475579264	1
4	101541	1524.23475579264	0
4	101760	1526.61541538879	1
4	101760	1526.61541538879	0
4	101922	1529.24017856583	1
4	102338	1532.33954454813	0
4	102712	1535.80957411195	1
4	102712	1535.80957411195	0
4	102983	1537.74828921426	1
4	102983	1537.74828921426	0
4	103399	1540.80631114959	1
4	103399	1540.80631114959	0
4	104841	1556.61209365311	1
4	104841	1556.61209365311	0
4	105387	1561.61884211707	1
4	105387	1561.61884211707	0
4	105732	1571.06387518118	1
4	105732	1571.06387518118	0
4	106246	1577.87421452123	1
4	106246	1577.87421452123	0
4	107080	1595.68638877684	1
4	107080	1595.68638877684	0
4	107795	1609.61498496113	1
4	107795	1609.61498496113	0
4	109031	1647.56967374196	1
4	109031	1647.56967374196	0
4	109329	1650.11021003189	1
4	109329	1650.11021003189	0
4	110554	1669.79865218968	1
4	110554	1669.79865218968	0
4	111203	1680.10258493225	1
4	111203	1680.10258493225	0
4	112458	1689.1430602735	1
4	112458	1689.1430602735	0
4	112713	1692.18162986291	1
4	112713	1692.18162986291	0
4	113296	1704.01178887797	1
4	113296	1704.01178887797	0
4	113646	1706.20188108071	1
4	113670	1706.2547482107	0
4	114053	1710.34695189242	1
4	114053	1710.34695189242	0
4	114644	1718.61270905912	1
4	114644	1718.61270905912	0
4	115056	1724.17991766923	1
4	115056	1724.17991766923	0
4	115571	1729.72058098555	1
4	115571	1729.72058098555	0
4	116408	1736.01317252159	1
4	116408	1736.01317252159	0
4	116641	1739.96427421558	1
4	116641	1739.96427421558	0
4	116983	1750.69545711644	1
4	116983	1750.69545711644	0
4	117664	1762.7284480921	1
4	117664	1762.7284480921	0
4	117857	1765.04170929863	1
4	117857	1765.04170929863	0
4	118119	1770.07895414732	1
4	118119	1770.07895414732	0
4	118972	1777.74937834463	1
4	118972	1777.74937834463	0
4	119333	1784.31407906323	1
4	119333	1784.31407906323	0
4	119775	1795.37547791514	1
4	119775	1795.37547791514	0
4	120778	1824.54286878995	1
4	120778	1824.54286878995	0
4	121242	1828.93386067491	1
4	121242	1828.93386067491	0
4	121541	1833.94640595744	1
4	121541	1833.94640595744	0
4	121923	1844.93291471298	1
4	121923	1844.93291471298	0
4	122221	1847.49609052103	1
4	122221	1847.49609052103	0
4	122621	1852.69076472235	1
4	122621	1852.69076472235	0
4	123040	1856.42394560755	1
4	123040	1856.42394560755	0
4	123726	1867.41856341217	1
4	123726	1867.41856341217	0
4	124342	1871.19394021447	1
4	124342	1871.19394021447	0
4	124648	1875.76889271844	1
4	124648	1875.76889271844	0
4	125278	1883.83687163815	1
4	125278	1883.83687163815	0
4	125729	1892.07844912875	1
4	125729	1892.07844912875	0
4	125869	1893.93290915441	1
4	125986	1894.44024759199	0
4	126120	1895.78273113801	1
4	126120	1895.78273113801	0
4	126625	1901.92536510613	1
4	126625	1901.92536510613	0
4	126902	1904.33094275998	1
4	126902	1904.33094275998	0
4	127245	1910.41493448834	1
4	127245	1910.41493448834	0
4	127569	1915.40529236674	1
4	127569	1915.40529236674	0
4	127915	1924.43879636154	1
4	127915	1924.43879636154	0
4	128496	1931.30374657271	1
4	128496	1931.30374657271	0
4	128985	1935.13312950947	1
4	128985	1935.13312950947	0
4	129105	1936.80782646575	1
4	129105	1936.80782646575	0
4	129284	1942.95760068409	1
4	129284	1942.95760068409	0
4	129599	1945.06346201753	1
4	129599	1945.06346201753	0
4	129933	1947.0693486058	1
4	129933	1947.0693486058	0
4	130524	1955.83312783078	1
4	130524	1955.83312783078	0
4	130678	1957.90893389603	1
4	130678	1957.90893389603	0
4	130952	1960.84748886544	1
4	130952	1960.84748886544	0
4	131582	1968.38024357708	1
4	131582	1968.38024357708	0
4	131872	1970.78363899568	1
4	131956	1971.69133498747	0
4	132215	1978.27184365133	1
4	132215	1978.27184365133	0
4	133041	2007.14071712202	1
4	133041	2007.14071712202	0
4	133183	2010.05027702273	1
4	133183	2010.05027702273	0
4	133532	2016.05073391119	1
4	133532	2016.05073391119	0
4	133706	2023.88146828377	1
4	133706	2023.88146828377	0
4	133914	2025.79642617908	1
4	133914	2025.79642617908	0
4	134661	2033.23473895809	1
4	134661	2033.23473895809	0
4	135126	2044.0464547922	1
4	135126	2044.0464547922	0
4	136176	2054.34426796335	1
4	136176	2054.34426796335	0
4	137377	2065.54242935451	1
4	137377	2065.54242935451	0
4	137919	2076.67788959827	1
4	137919	2076.67788959827	0
4	138438	2081.23736947557	1
4	138438	2081.23736947557	0
4	138800	2084.13256445924	1
4	138800	2084.13256445924	0
4	139027	2089.14269261977	1
4	139027	2089.14269261977	0
4	139384	2094.57924903792	1
4	139384	2094.57924903792	0
4	139859	2103.15701641297	1
4	139859	2103.15701641297	0
4	140062	2108.63769825438	1
4	140062	2108.63769825438	0
4	140245	2111.43133464289	1
4	140431	2114.25844934927	0
4	141523	2125.49779043174	1
4	141523	2125.49779043174	0
4	141710	2127.67572279815	1
4	141710	2127.67572279815	0
4	141917	2130.86295991523	1
4	141917	2130.86295991523	0
4	142081	2132.65093412095	1
4	142081	2132.65093412095	0
4	142514	2140.43116249489	1
4	142514	2140.43116249489	0
4	143077	2142.92675902577	1
4	143077	2142.92675902577	0
4	143835	2155.73165605628	1
4	143835	2155.73165605628	0
4	144233	2166.5544692068	1
4	144233	2166.5544692068	0
4	144444	2169.7461557398	1
4	144444	2169.7461557398	0
4	144946	2183.373946602	1
4	144946	2183.373946602	0
4	145166	2192.49961084942	1
4	145166	2192.49961084942	0
4	145344	2195.79940024917	1
4	145344	2195.79940024917	0
4	145488	2199.73154874533	1
4	145488	2199.73154874533	0
4	145779	2203.40407557768	1
4	145779	2203.40407557768	0
4	147369	2217.75386341231	1
4	147369	2217.75386341231	0
4	147877	2221.9964040546	1
4	147877	2221.9964040546	0
4	148439	2227.97037764855	1
4	148439	2227.97037764855	0
4	149143	2242.71310332972	1
4	149143	2242.71310332972	0
4	149452	2252.56110503029	1
4	149452	2252.56110503029	0
4	150578	2276.24221649156	1
4	150578	2276.24221649156	0
4	151075	2281.6252799833	1
4	151075	2281.6252799833	0
4	151696	2289.0618323122	1
4	151696	2289.0618323122	0
4	152166	2292.3191636886	1
4	152166	2292.3191636886	0
4	152426	2299.53701318615	1
4	152426	2299.53701318615	0
4	152639	2301.25564307194	1
4	152639	2301.25564307194	0
4	153197	2312.21078152022	1
4	153197	2312.21078152022	0
4	153812	2315.56665682609	1
4	153812	2315.56665682609	0
4	154945	2336.08861370327	1
4	154945	2336.08861370327	0
4	155655	2342.76654508691	1
4	155655	2342.76654508691	0
4	156109	2347.55761618405	1
4	156109	2347.55761618405	0
4	156443	2357.90039660526	1
4	156443	2357.90039660526	0
4	156606	2361.62221207001	1
4	156606	2361.62221207001	0
4	157263	2378.90385331423	1
4	157263	2378.90385331423	0
4	157764	2387.12755729101	1
4	157764	2387.12755729101	0
4	158374	2391.70929120265	1
4	158374	2391.70929120265	0
4	158758	2394.78014160608	1
4	158794	2395.06521147458	0
4	158946	2398.89931872286	1
4	158946	2398.89931872286	0
4	159124	2402.18028114836	1
4	159124	2402.18028114836	0
4	159654	2404.26270277722	1
4	159654	2404.26270277722	0
4	160050	2414.48530637387	1
4	160050	2414.48530637387	0
4	160341	2416.79250163981	1
4	160341	2416.79250163981	0
4	160794	2420.57135992167	1
4	160794	2420.57135992167	0
4	161690	2446.26421312213	1
4	161690	2446.26421312213	0
4	161840	2448.15792990898	1
4	161871	2448.30944234107	0
4	162130	2451.12852619522	1
4	162130	2451.12852619522	0
4	162351	2456.36450659602	1
4	162351	2456.36450659602	0
4	162732	2461.10736275102	1
4	162732	2461.10736275102	0
4	162883	2472.72721924163	1
4	162883	2472.72721924163	0
4	163397	2486.66644889033	1
4	163397	2486.66644889033	0
4	163951	2492.62204924025	1
4	163951	2492.62204924025	0
4	164609	2495.37042352861	1
4	164609	2495.37042352861	0
4	165616	2507.28814485629	1
4	165616	2507.28814485629	0
4	166269	2512.8292183107	1
4	166290	2512.84342763847	0
4	166372	2514.51844410667	1
4	166372	2514.51844410667	0
4	167341	2527.40514027534	1
4	167341	2527.40514027534	0
4	167609	2529.5845501024	1
4	167609	2529.5845501024	0
4	167899	2533.12355021731	1
4	167899	2533.12355021731	0
4	168371	2536.26201301916	1
4	168371	2536.26201301916	0
4	168707	2556.95992411043	1
4	168707	2556.95992411043	0
4	169233	2563.34343558327	1
4	169233	2563.34343558327	0
4	169532	2569.03299225939	1
4	169532	2569.03299225939	0
4	169785	2571.16099564752	1
4	169785	2571.16099564752	0
4	170527	2581.87422069127	1
4	170527	2581.87422069127	0
4	170828	2585.29059984206	1
4	170828	2585.29059984206	0
4	171094	2588.01963611994	1
4	171509	2591.29345885287	2
4	171632	2592.55930002344	1
4	171633	2592.70938892626	0
4	171787	2596.86294887378	1
4	171787	2596.86294887378	0
4	171982	2598.81039953981	1
4	171982	2598.81039953981	0
4	172888	2615.4775450416	1
4	172888	2615.4775450416	0
4	173214	2623.55504837783	1
4	173214	2623.55504837783	0
4	173630	2629.50617899171	1
4	173630	2629.50617899171	0
4	174275	2649.65449120311	1
4	174275	2649.65449120311	0
4	174653	2657.61525696002	1
4	174653	2657.61525696002	0
4	175311	2671.849351536	1
4	175311	2671.849351536	0
4	175644	2676.13604045967	1
4	175644	2676.13604045967	0
4	176110	2682.61296246145	1
4	176110	2682.61296246145	0
4	177020	2688.60840345297	1
4	177020	2688.60840345297	0
4	177559	2690.79857632274	1
4	177639	2691.55237239739	0
4	177800	2695.74108310664	1
4	177800	2695.74108310664	0
4	178293	2702.34353518585	1
4	178293	2702.34353518585	0
4	178659	2706.79652177961	1
4	178659	2706.79652177961	0
4	179132	2713.25835795881	1
4	179132	2713.25835795881	0
4	180127	2723.89711456422	1
4	180127	2723.89711456422	0
4	180302	2726.2255761075	1
4	180302	2726.2255761075	0
4	180637	2730.36663485971	1
4	180637	2730.36663485971	0
4	181294	2748.07506120023	1
4	181294	2748.07506120023	0
4	181506	2751.54706657107	1
4	181506	2751.54706657107	0
4	182763	2768.57394743481	1
4	182763	2768.57394743481	0
4	184172	2787.37183817163	1
4	184172	2787.37183817163	0
4	184763	2801.39609079225	1
4	184763	2801.39609079225	0
4	185065	2803.69051732723	1
4	185065	2803.69051732723	0
4	185252	2808.88021823648	1
4	185252	2808.88021823648	0
4	185578	2813.13568154964	1
4	185578	2813.13568154964	0
4	185809	2817.16152343986	1
4	185809	2817.16152343986	0
4	185991	2819.76952385359	1
4	185991	2819.76952385359	0
4	186557	2831.77503184161	1
4	186557	2831.77503184161	0
4	187019	2848.60686604585	1
4	187019	2848.60686604585	0
4	187479	2857.45709621702	1
4	187479	2857.45709621702	0
4	187989	2863.29105233273	1
4	187989	2863.29105233273	0
4	188630	2868.2164549859	1
4	188630	2868.2164549859	0
4	188813	2870.51036932626	1
4	188813	2870.51036932626	0
4	189705	2877.38081977606	1
4	189705	2877.38081977606	0
4	189981	2887.27514534963	1
4	189981	2887.27514534963	0
4	190200	2892.30293437832	1
4	190200	2892.30293437832	0
4	190364	2896.5656122689	1
4	190364	2896.5656122689	0
4	190546	2898.84012072454	1
4	190546	2898.84012072454	0
4	190742	2901.84378587095	1
4	190742	2901.84378587095	0
4	191002	2908.68924506239	1
4	191002	2908.68924506239	0
4	191071	2910.3912210485	1
4	191071	2910.3912210485	0
4	191481	2913.45975506068	1
4	191481	2913.45975506068	0
4	191770	2915.7664702363	1
4	191770	2915.7664702363	0
4	192024	2917.77272700388	1
4	192048	2918.25730792238	0
4	192459	2922.31566235047	1
4	192459	2922.31566235047	0
4	192764	2927.51969915643	1
4	192764	2927.51969915643	0
4	193974	2944.91745910557	1
4	193974	2944.91745910557	0
4	194201	2951.69429139785	1
4	194201	2951.69429139785	0
4	194546	2957.58898047513	1
4	194546	2957.58898047513	0
4	195349	2962.65105668861	1
4	195349	2962.65105668861	0
4	196111	2970.81241675584	1
4	196111	2970.81241675584	0
4	196478	2977.39947072931	1
4	196478	2977.39947072931	0
4	196864	2983.04762107422	1
4	196864	2983.04762107422	0
4	197306	2990.28015330224	1
4	197306	2990.28015330224	0
4	197462	2994.13656491534	1
4	197462	2994.13656491534	0
4	197799	2999.70452829036	1
4	197799	2999.70452829036	0
4	198931	3018.87412361571	1
4	198931	3018.87412361571	0
4	199377	3036.2855684529	1
4	199377	3036.2855684529	0
4	199781	3038.5629043455	1
4	199781	3038.5629043455	0
4	200038	3042.4513725556	1
4	200076	3042.48617141309	0
4	201560	3064.83627748056	1
4	201560	3064.83627748056	0
4	201986	3074.3535799463	1
4	201986	3074.3535799463	0
4	202308	3083.92741587626	1
4	202308	3083.92741587626	0
4	202467	3086.13457665949	1
4	202467	3086.13457665949	0
4	203238	3098.3366773208	1
4	203238	3098.3366773208	0
4	203502	3101.40896457772	1
4	203502	3101.40896457772	0
4	203820	3106.96337821359	1
4	203820	3106.96337821359	0
4	204612	3116.29150174947	1
4	204612	3116.29150174947	0
4	205273	3124.88428889907	1
4	205273	3124.88428889907	0
4	205699	3128.01238675438	1
4	205699	3128.01238675438	0
4	206558	3136.96047575365	1
4	206558	3136.96047575365	0
4	206873	3139.19112862123	1
4	206873	3139.19112862123	0
4	207713	3151.77403399714	1
4	207713	3151.77403399714	0
4	208221	3158.1535270472	1
4	208221	3158.1535270472	0
4	209068	3171.45260640085	1
4	209068	3171.45260640085	0
4	209285	3173.92305359382	1
4	209285	3173.92305359382	0
4	209916	3193.27315398514	1
4	209916	3193.27315398514	0
4	210806	3210.44287717109	1
4	210806	3210.44287717109	0
4	211116	3216.19515642028	1
4	211116	3216.19515642028	0
4	211598	3219.40519012572	1
4	211598	3219.40519012572	0
4	211872	3221.71519779581	1
4	211872	3221.71519779581	0
4	212123	3223.56787357798	1
4	212123	3223.56787357798	0
4	213147	3235.49244599703	1
4	213147	3235.49244599703	0
4	213284	3237.39063910812	1
4	213284	3237.39063910812	0
4	213465	3239.38363046451	1
4	213465	3239.38363046451	0
4	213810	3248.26401961846	1
4	213810	3248.26401961846	0
4	214015	3262.65648749014	1
4	214015	3262.65648749014	0
4	214360	3272.98505900507	1
4	214360	3272.98505900507	0
4	214826	3277.18133493999	1
4	214826	3277.18133493999	0
4	215254	3278.96378657618	1
4	215254	3278.96378657618	0
4	215515	3282.30142032415	1
4	215515	3282.30142032415	0
4	215709	3291.78768746432	1
4	215709	3291.78768746432	0
4	216413	3299.85385104103	1
4	216413	3299.85385104103	0
4	217648	3311.60217378886	1
4	217648	3311.60217378886	0
4	217937	3314.01552128596	1
4	217937	3314.01552128596	0
4	218328	3318.55090744492	1
4	218328	3318.55090744492	0
4	218836	3326.79703614451	1
4	218836	3326.79703614451	0
4	219545	3338.06097807818	1
4	219545	3338.06097807818	0
4	219852	3343.32320200403	1
4	219852	3343.32320200403	0
4	220072	3345.13101696548	1
4	220072	3345.13101696548	0
4	220458	3349.26493148091	1
4	220458	3349.26493148091	0
4	221378	3354.62805698437	1
4	221378	3354.62805698437	0
4	221541	3356.60665800765	1
4	221541	3356.60665800765	0
4	222156	3375.40986424202	1
4	222156	3375.40986424202	0
4	222543	3380.3955841732	1
4	222543	3380.3955841732	0
4	222722	3392.72604199037	1
4	222722	3392.72604199037	0
4	224003	3415.13878560833	1
4	224003	3415.13878560833	0
4	224200	3422.88448655	1
4	224200	3422.88448655	0
4	224779	3429.18002556776	1
4	224779	3429.18002556776	0
4	225213	3438.80407629106	1
4	225213	3438.80407629106	0
4	225491	3442.54111256428	1
4	225491	3442.54111256428	0
4	226435	3455.3391430971	1
4	226435	3455.3391430971	0
4	227232	3465.21229474725	1
4	227232	3465.21229474725	0
4	227611	3474.97582162553	1
4	227611	3474.97582162553	0
4	228521	3483.19113075003	1
4	228521	3483.19113075003	0
4	229396	3487.75143859921	1
4	229396	3487.75143859921	0
4	229843	3497.85169791934	1
4	229843	3497.85169791934	0
4	230099	3501.16200159914	1
4	230099	3501.16200159914	0
4	230634	3508.48189873669	1
4	230634	3508.48189873669	0
4	231257	3521.81079590663	1
4	231257	3521.81079590663	0
4	232015	3532.56490386957	1
4	232015	3532.56490386957	0
4	233054	3541.81706495172	1
4	233054	3541.81706495172	0
4	234108	3568.53370775454	1
4	234108	3568.53370775454	0
4	234697	3579.3645774257	1
4	234697	3579.3645774257	0
4	235329	3586.6646987651	1
4	235329	3586.6646987651	0
4	235515	3590.85419511674	1
4	235515	3590.85419511674	0
4	235813	3596.64114937337	1
4	235813	3596.64114937337	0
5	11764	78.21368325156	1.71213064525
5	12934	187.76933051973	1.7121308289
5	13882	192.1063738001	1.71213025703
5	14719	195.23496365122	1.71213011406
5	15064	197.73450668717	1.71213010181
5	15577	202.74769647413	1.7121308167
5	15905	205.89032072622	1.71213044875
5	16703	208.62459911816	1.71212976783
5	18175	219.41857530044	1.71213041483
5	19021	222.54617593798	1.7121309885
5	19974	228.6308965638	1.71212967005
5	20260	231.61565538867	1.71213029145
5	20706	235.47734420924	1.98129465612
5	21160	239.32607510996	1.71213004587
5	21387	241.5144133918	1.71213164362
5	21729	252.63867102163	1.71213060791
5	21903	255.88306547379	1.71213064525
5	22464	262.15032758432	1.71213041615
5	22914	267.22524597533	1.71213121455
5	23888	277.24505861684	1.71213167557
5	24075	280.54983530948	1.71213062134
5	24254	285.37240823045	1.7121307084
5	24788	303.47651679636	1.71213428996
5	24933	355.37004398511	1.71212965204
5	25345	369.9522073683	1.71213023834
5	26171	374.82784411828	1.71213011406
5	26492	376.57966900046	1.71213025703
5	27124	383.83881168517	1.7121308289
5	27606	388.72782601383	1.71212976783
5	28025	390.78378017785	1.71213041483
5	28690	393.78496490961	1.71213003576
5	29753	398.18621879677	1.71213010181
5	30106	400.33359876928	1.71213034087
5	30585	404.0824419562	1.71213036907
5	31001	406.80917433652	1.71212967005
5	31431	409.68300830976	1.7121300922
5	31727	415.48898182844	1.71213094712
5	31959	417.99274286094	1.71213044875
5	32250	419.81811002402	1.71213266846
5	32700	425.30341384305	1.7121333207
5	33161	430.31043238483	1.71213004587
5	33381	432.18770283644	1.7121309885
5	33522	434.01236810342	1.71212975154
5	33910	440.10340444183	1.71213199617
5	34543	451.49028904737	1.71213041615
5	35214	463.65197553512	1.71213064525
5	35861	471.09520308088	1.71213124576
5	36146	478.12298553423	1.71213178596
5	36401	487.43258425571	1.7121307084
5	37503	535.30814344553	1.71212965204
5	37911	558.75552563517	1.71213291983
5	38698	564.53529890189	1.71213011406
5	39194	567.58833694213	1.71213003576
5	39841	573.0316461165	1.71213068162
5	40603	577.30644397746	1.71213034087
5	41648	588.46755186384	1.71213000539
5	41993	590.98936969686	1.71213071685
5	42800	596.81626636947	1.71212976783
5	43344	605.47490893305	1.71213135858
5	43651	608.09602426917	1.7121300922
5	44303	615.02873129839	1.71213004587
5	44804	619.53270682708	1.71212967005
5	45140	622.56348275162	1.71212975154
5	45999	633.9465024467	1.71213041615
5	46214	639.42203269697	1.7121309885
5	46545	646.80715743964	1.71213064525
5	46891	651.96582138191	1.71213175474
5	47364	655.13426300556	1.71213029145
5	48293	672.96113796382	1.71213139994
5	48738	683.07226068142	1.71213371855
5	48918	692.92071861131	1.71213060791
5	49257	698.98197967079	1.71213062134
5	49805	716.64709660526	1.71212965204
5	50373	735.63589938144	1.71213023834
5	50583	738.94792565651	1.71213011406
5	50912	742.32022996144	1.71213003576
5	51404	748.347005632	1.71213036907
5	52061	758.19883889667	1.71213041483
5	52869	769.71288259709	1.71212976783
5	53443	772.98962616943	1.71213000539
5	53715	775.7833728281	1.71213068162
5	54317	785.91633829986	1.7121308167
5	55030	791.67467839339	1.71212967005
5	55683	803.87602346272	1.71213225554
5	56064	808.90089004651	1.71213040776
5	56369	815.85419690976	1.71213159536
5	56757	819.35153733	1.7121308289
5	56934	821.97517537771	1.7121300922
5	57975	832.26602278375	1.71213044875
5	58558	836.27465136721	1.71213025703
5	59553	850.4508122466	1.71213029145
5	59737	855.04184481327	1.71213102247
5	60250	866.97971223415	1.7121307084
5	60444	871.30273703241	1.71213175474
5	61422	897.5952397676	1.71213139994
5	61567	902.71078828493	1.71212965204
5	61746	908.24311240095	1.71213023834
5	62258	921.1941494011	1.71213003576
5	62494	924.35043011697	1.71213261806
5	62668	928.12994594463	1.71213132475
5	63487	936.51472802631	1.71213109726
5	64734	947.81121593876	1.71212976783
5	65318	951.43886219302	1.71213068162
5	65677	960.46305973379	1.71213041483
5	66029	964.65789508897	1.71213010181
5	66809	972.01835658983	1.71213214181
5	67286	982.04014150961	1.71213057122
5	67452	985.56525484862	1.71213040776
5	68269	993.76483852948	1.71212975154
5	68477	996.11582903095	1.71213034087
5	68989	1006.52300474972	1.71213044875
5	69277	1008.75936397076	1.86811943578
5	69527	1011.0184807856	1.71213094712
5	70105	1023.87093380097	1.71213064525
5	70907	1036.31917731367	1.71213029145
5	71160	1042.56500947109	1.71213025703
5	71405	1045.57862602023	1.71213374976
5	71555	1051.15580598486	1.7121300922
5	72494	1064.88075922656	1.71213060791
5	72891	1080.45718799619	1.71212965204
5	73104	1083.44348607468	1.71213062134
5	73286	1087.19976951239	1.71213175474
5	73669	1094.42135223485	1.71212967005
5	73932	1099.4276848213	1.71213023834
5	74571	1109.76426875897	1.71213139994
5	74988	1115.71234789608	1.71213109726
5	75732	1122.41018638346	5.99134367069
5	76336	1124.48264195035	1.71212976783
5	76796	1127.46977461758	2.61658563277
5	76974	1134.87827668418	1.71213011406
5	77135	1137.09985032504	1.71213041483
5	77486	1140.88444116054	1.71213010181
5	77729	1143.7860351873	1.71213004587
5	78511	1156.07468284895	1.71213072422
5	78670	1157.79167540106	1.71213057122
5	78837	1162.88791698292	1.71213040776
5	79868	1173.56331470723	1.7121308289
5	80687	1189.13105120989	1.71213071685
5	80873	1193.60165269052	1.71213044875
5	81294	1198.31081759986	1.71213041615
5	81800	1203.75861197515	1.7121308167
5	82539	1209.47291783315	1.71213034087
5	83064	1216.28498635721	1.71213107063
5	83395	1224.21411196735	1.71213064525
5	83801	1236.28507548651	1.71213029145
5	84249	1248.34928561333	1.71213124576
5	85127	1281.56392805628	1.71212967005
5	86499	1291.84481406507	1.71213360126
5	87125	1297.54584192333	1.71213068162
5	88631	1316.742146569	1.71212976783
5	89555	1324.93520846455	1.71213041483
5	90328	1331.48169596745	1.71213206734
5	90589	1334.62985611004	1.7121307084
5	91049	1345.94429827221	1.71212975154
5	91281	1349.61227910378	1.71213199617
5	91445	1355.35766649509	1.71213011406
5	93229	1376.98170013419	1.71213164362
5	93876	1380.1128204412	1.71213094712
5	95423	1410.11458537525	1.71213064525
5	96201	1430.55184874687	1.71213374976
5	96358	1434.28783389673	1.71213029145
5	96952	1447.80443554659	1.71213060791
5	97380	1464.29571027881	1.71213062134
5	97718	1467.55863878788	2.74741381752
5	98258	1478.38616121537	1.71213000539
5	99272	1486.582401623	1.71213109726
5	99579	1491.68540849231	1.71212967005
5	100350	1497.00840206883	2.64197461527
5	100534	1503.11345919611	1.71213132475
5	100992	1510.30863135442	1.71213068162
5	101219	1512.92562765732	2.2862990388
5	101359	1519.84493017213	1.71213041583
5	101541	1524.23475579264	1.71213004587
5	101760	1526.61541538879	1.71213224041
5	102338	1532.33954454813	4.81149609636
5	102712	1535.80957411195	1.71212975154
5	102983	1537.74828921426	1.71212965204
5	103399	1540.80631114959	1.71212976783
5	104841	1556.61209365311	1.71213347197
5	105387	1561.61884211707	1.71213036907
5	105732	1571.06387518118	1.71213025703
5	106246	1577.87421452123	1.71213034087
5	107080	1595.68638877684	1.71213094712
5	109031	1647.56967374196	1.71213062134
5	109329	1650.11021003189	1.71213000539
5	110554	1669.79865218968	1.71212967005
5	111203	1680.10258493225	1.71213274234
5	112458	1689.1430602735	1.7121300922
5	112713	1692.18162986291	1.71213041583
5	113296	1704.01178887797	1.71213004587
5	113670	1706.2547482107	1.7649972318
5	114053	1710.34695189242	1.71212975154
5	114644	1718.61270905912	1.71213041483
5	115056	1724.17991766923	1.71212976783
5	115571	1729.72058098555	1.71213041615
5	116408	1736.01317252159	1.71213159536
5	116641	1739.96427421558	1.71212965204
5	116983	1750.69545711644	1.71213025703
5	117664	1762.7284480921	1.71213034087
5	117857	1765.04170929863	1.71213121455
5	118119	1770.07895414732	1.71213260582
5	118972	1777.74937834463	1.71213036907
5	119333	1784.31407906323	1.71213029145
5	119775	1795.37547791514	1.71213274585
5	120778	1824.54286878995	1.71213312534
5	121242	1828.93386067491	1.71213000539
5	121541	1833.94640595744	1.71213094712
5	121923	1844.93291471298	1.71212967005
5	122221	1847.49609052103	1.71213226851
5	122621	1852.69076472235	1.71213003576
5	123040	1856.42394560755	1.7121308289
5	123726	1867.41856341217	1.71213139994
5	124342	1871.19394021447	1.7121300922
5	124648	1875.76889271844	1.71213127369
5	125278	1883.83687163815	1.71213057122
5	125729	1892.07844912875	1.71213206734
5	125986	1894.44024759199	2.21946885241
5	126120	1895.78273113801	1.71212975154
5	126625	1901.92536510613	1.71213068162
5	126902	1904.33094275998	1.71213010181
5	127245	1910.41493448834	1.71213041615
5	127569	1915.40529236674	1.71212976783
5	128985	1935.13312950947	1.71212965204
5	129284	1942.95760068409	1.71213044875
5	129599	1945.06346201753	1.71213261806
5	130524	1955.83312783078	1.71213158805
5	130678	1957.90893389603	1.71213029145
5	130952	1960.84748886544	1.71213096797
5	131582	1968.38024357708	1.71213071685
5	131956	1971.69133498747	2.61982813903
5	132215	1978.27184365133	1.71213064525
5	133183	2010.05027702273	1.71213000539
5	133532	2016.05073391119	1.71213102247
5	133706	2023.88146828377	1.71212967005
5	133914	2025.79642617908	1.71213094712
5	134661	2033.23473895809	1.71213107063
5	135126	2044.0464547922	1.7121300922
5	136176	2054.34426796335	1.71213004587
5	137377	2065.54242935451	1.71213291883
5	137919	2076.67788959827	1.71212975154
5	138438	2081.23736947557	1.71213003576
5	138800	2084.13256445924	1.71213178596
5	139027	2089.14269261977	1.71212976783
5	139384	2094.57924903792	1.71213041615
5	139859	2103.15701641297	1.71213040776
5	140062	2108.63769825438	1.71213140477
5	140431	2114.25844934927	4.53924480819
5	141523	2125.49779043174	1.71212965204
5	141710	2127.67572279815	1.71213036907
5	141917	2130.86295991523	1.71213034087
5	142081	2132.65093412095	1.71213044875
5	142514	2140.43116249489	1.7121308167
5	143077	2142.92675902577	1.71213029145
5	143835	2155.73165605628	1.71213011406
5	144233	2166.5544692068	1.71213025703
5	144444	2169.7461557398	1.71213064525
5	144946	2183.373946602	1.71213096797
5	145166	2192.49961084942	1.71213250939
5	145344	2195.79940024917	1.71213062134
5	145488	2199.73154874533	1.71212967005
5	145779	2203.40407557768	1.71213094712
5	147369	2217.75386341231	1.7121300922
5	147877	2221.9964040546	1.7121308289
5	148439	2227.97037764855	1.71213041583
5	149143	2242.71310332972	1.71213109726
5	149452	2252.56110503029	1.71213003576
5	150578	2276.24221649156	1.71212975154
5	151075	2281.6252799833	1.71212976783
5	152166	2292.3191636886	1.71213010181
5	152426	2299.53701318615	1.71212965204
5	152639	2301.25564307194	1.71213211165
5	153197	2312.21078152022	1.71213034087
5	153812	2315.56665682609	1.7121332124
5	154945	2336.08861370327	1.71213124576
5	155655	2342.76654508691	1.71213023834
5	156443	2357.90039660526	1.71213029145
5	156606	2361.62221207001	1.71213068162
5	157263	2378.90385331423	1.71213025703
5	157764	2387.12755729101	1.71213000539
5	158374	2391.70929120265	1.71213274585
5	158794	2395.06521147458	1.9971999607
5	158946	2398.89931872286	1.71212967005
5	159124	2402.18028114836	1.71213004587
5	159654	2404.26270277722	1.71213107063
5	160050	2414.48530637387	1.71213041483
5	160794	2420.57135992167	1.71213041583
5	161871	2448.30944234107	1.86364246785
5	162130	2451.12852619522	1.71213157611
5	162351	2456.36450659602	1.71212975154
5	162732	2461.10736275102	1.71213159536
5	162883	2472.72721924163	1.71212965204
5	163397	2486.66644889033	1.71213034087
5	163951	2492.62204924025	1.71212976783
5	164609	2495.37042352861	1.71213044875
5	166290	2512.84342763847	1.72633944183
5	166372	2514.51844410667	1.71213010181
5	167341	2527.40514027534	1.71213036907
5	167609	2529.5845501024	1.71213140477
5	167899	2533.12355021731	1.71213072422
5	168371	2536.26201301916	1.71213029145
5	168707	2556.95992411043	1.71213025703
5	169233	2563.34343558327	1.71213060791
5	169532	2569.03299225939	1.71213345112
5	169785	2571.16099564752	1.71213062134
5	170527	2581.87422069127	1.71213107063
5	170828	2585.29059984206	1.71212967005
5	171633	2592.70938892626	3.12806007878
5	171787	2596.86294887378	1.7121300922
5	171982	2598.81039953981	1.71213125248
5	172888	2615.4775450416	1.71213132475
5	173214	2623.55504837783	1.71213041615
5	173630	2629.50617899171	1.71213003576
5	174653	2657.61525696002	1.71213157611
5	175644	2676.13604045967	1.7121307084
5	176110	2682.61296246145	1.71212965204
5	177020	2688.60840345297	1.71213011406
5	177639	2691.55237239739	2.46592834648
5	177800	2695.74108310664	1.71213023834
5	178293	2702.34353518585	1.71213036907
5	178659	2706.79652177961	1.71213034087
5	179132	2713.25835795881	1.71213068162
5	180127	2723.89711456422	1.71213029145
5	180637	2730.36663485971	1.71213025703
5	181294	2748.07506120023	1.71212975154
5	181506	2751.54706657107	1.71213096797
5	182763	2768.57394743481	1.71213000539
5	184172	2787.37183817163	1.71213062134
5	184763	2801.39609079225	1.71213139994
5	185065	2803.69051732723	1.7121300922
5	185252	2808.88021823648	1.71212967005
5	185578	2813.13568154964	1.71213292015
5	185809	2817.16152343986	1.71213102247
5	185991	2819.76952385359	1.71213003576
5	186557	2831.77503184161	1.71213004587
5	187479	2857.45709621702	1.71212965204
5	187989	2863.29105233273	1.71213057122
5	188630	2868.2164549859	1.71212976783
5	188813	2870.51036932626	1.71213023834
5	189705	2877.38081977606	1.71213040776
5	189981	2887.27514534963	1.71213068162
5	190200	2892.30293437832	1.71213120325
5	190364	2896.5656122689	1.71213011406
5	190546	2898.84012072454	1.71213034087
5	190742	2901.84378587095	1.71213214181
5	191002	2908.68924506239	1.71213072422
5	191071	2910.3912210485	1.71213071685
5	191481	2913.45975506068	1.71213025703
5	191770	2915.7664702363	1.71213064525
5	192048	2918.25730792238	2.19671102031
5	192764	2927.51969915643	1.71212975154
5	193974	2944.91745910557	1.71213279545
5	194201	2951.69429139785	1.71213036907
5	194546	2957.58898047513	1.71213044875
5	195349	2962.65105668861	1.71213041483
5	196111	2970.81241675584	1.71213124576
5	196478	2977.39947072931	1.71213139994
5	196864	2983.04762107422	1.7121300922
5	197306	2990.28015330224	1.71213125248
5	197462	2994.13656491534	1.71213000539
5	197799	2999.70452829036	1.71212967005
5	198931	3018.87412361571	1.71213004587
5	199377	3036.2855684529	1.71213057122
5	199781	3038.5629043455	1.71213003576
5	200076	3042.48617141309	1.74692850953
5	201560	3064.83627748056	1.71213041583
5	201986	3074.3535799463	1.71213227183
5	202308	3083.92741587626	1.71213011406
5	202467	3086.13457665949	1.71213025703
5	203238	3098.3366773208	1.7121307084
5	203502	3101.40896457772	1.71213162544
5	203820	3106.96337821359	1.71213041615
5	204612	3116.29150174947	1.71212975154
5	205273	3124.88428889907	1.71213040776
5	205699	3128.01238675438	1.71213036907
5	206558	3136.96047575365	1.71213062134
5	206873	3139.19112862123	1.71213010181
5	207713	3151.77403399714	1.71213135858
5	208221	3158.1535270472	1.71213214724
5	209068	3171.45260640085	1.71212967005
5	209285	3173.92305359382	1.71213094712
5	209916	3193.27315398514	1.71213004587
5	210806	3210.44287717109	1.71213307522
5	211116	3216.19515642028	1.71213003576
5	211598	3219.40519012572	1.71213041483
5	211872	3221.71519779581	1.7121308289
5	212123	3223.56787357798	1.71212965204
5	213147	3235.49244599703	1.71213199617
5	213284	3237.39063910812	1.71213023834
5	213465	3239.38363046451	1.71213000539
5	213810	3248.26401961846	1.71212976783
5	214015	3262.65648749014	1.71213034087
5	214360	3272.98505900507	1.71213064525
5	214826	3277.18133493999	1.71213025703
5	215254	3278.96378657618	1.71213011406
5	215515	3282.30142032415	1.71213071685
5	215709	3291.78768746432	1.71213041615
5	216413	3299.85385104103	1.71212975154
5	217648	3311.60217378886	1.71213010181
5	217937	3314.01552128596	1.71213062134
5	218328	3318.55090744492	1.71213036907
5	219852	3343.32320200403	1.71212967005
5	220072	3345.13101696548	1.71213259235
5	220458	3349.26493148091	1.7121300922
5	221378	3354.62805698437	1.71213072422
5	221541	3356.60665800765	1.71213140477
5	222156	3375.40986424202	1.71213260582
5	222543	3380.3955841732	1.71213102247
5	224003	3415.13878560833	1.71213004587
5	224200	3422.88448655	1.71212965204
5	224779	3429.18002556776	1.71213003576
5	225213	3438.80407629106	1.71213057122
5	225491	3442.54111256428	1.71213109726
5	226435	3455.3391430971	1.71212976783
5	227232	3465.21229474725	1.7121332124
5	227611	3474.97582162553	1.71213041583
5	228521	3483.19113075003	1.71213011406
5	229396	3487.75143859921	1.71212975154
5	229843	3497.85169791934	1.71213044875
5	230099	3501.16200159914	1.71213036907
5	230634	3508.48189873669	1.71213062134
5	231257	3521.81079590663	1.71212967005
5	232015	3532.56490386957	1.7121308167
5	233054	3541.81706495172	1.71213010181
5	234108	3568.53370775454	1.71213041483
5	234697	3579.3645774257	1.71213102247
5	235329	3586.6646987651	1.71213254987
5	235515	3590.85419511674	1.71213214724
6	11764	78.21368325156	1.71213064525
6	12934	187.76933051973	1.7121308289
6	13882	192.1063738001	1.71213025703
6	14719	195.23496365122	1.71213011406
6	15064	197.73450668717	1.71213010181
6	15577	202.74769647413	1.7121308167
6	15905	205.89032072622	1.71213044875
6	16703	208.62459911816	1.71212976783
6	18175	219.41857530044	1.71213041483
6	19021	222.54617593798	1.7121309885
6	19974	228.6308965638	1.71212967005
6	20260	231.61565538867	1.71213029145
6	20706	235.47734420924	1.98129465612
6	21160	239.32607510996	1.71213004587
6	21387	241.5144133918	1.71213164362
6	21729	252.63867102163	1.71213060791
6	21903	255.88306547379	1.71213064525
6	22464	262.15032758432	1.71213041615
6	22914	267.22524597533	1.71213121455
6	23888	277.24505861684	1.71213167557
6	24075	280.54983530948	1.71213062134
6	24254	285.37240823045	1.7121307084
6	24788	303.47651679636	1.71213428996
6	24933	355.37004398511	1.71212965204
6	25345	369.9522073683	1.71213023834
6	26171	374.82784411828	1.71213011406
6	26492	376.57966900046	1.71213025703
6	27124	383.83881168517	1.7121308289
6	27606	388.72782601383	1.71212976783
6	28025	390.78378017785	1.71213041483
6	28690	393.78496490961	1.71213003576
6	29753	398.18621879677	1.71213010181
6	30106	400.33359876928	1.71213034087
6	30585	404.0824419562	1.71213036907
6	31001	406.80917433652	1.71212967005
6	31431	409.68300830976	1.7121300922
6	31727	415.48898182844	1.71213094712
6	31959	417.99274286094	1.71213044875
6	32250	419.81811002402	1.71213266846
6	32700	425.30341384305	1.7121333207
6	33161	430.31043238483	1.71213004587
6	33381	432.18770283644	1.7121309885
6	33522	434.01236810342	1.71212975154
6	33910	440.10340444183	1.71213199617
6	34543	451.49028904737	1.71213041615
6	35214	463.65197553512	1.71213064525
6	35861	471.09520308088	1.71213124576
6	36146	478.12298553423	1.71213178596
6	36401	487.43258425571	1.7121307084
6	37503	535.30814344553	1.71212965204
6	37911	558.75552563517	1.71213291983
6	38698	564.53529890189	1.71213011406
6	39194	567.58833694213	1.71213003576
6	39841	573.0316461165	1.71213068162
6	40603	577.30644397746	1.71213034087
6	41648	588.46755186384	1.71213000539
6	41993	590.98936969686	1.71213071685
6	42800	596.81626636947	1.71212976783
6	43344	605.47490893305	1.71213135858
6	43651	608.09602426917	1.7121300922
6	44303	615.02873129839	1.71213004587
6	44804	619.53270682708	1.71212967005
6	45140	622.56348275162	1.71212975154
6	45999	633.9465024467	1.71213041615
6	46214	639.42203269697	1.7121309885
6	46545	646.80715743964	1.71213064525
6	46891	651.96582138191	1.71213175474
6	47364	655.13426300556	1.71213029145
6	48293	672.96113796382	1.71213139994
6	48738	683.07226068142	1.71213371855
6	48918	692.92071861131	1.71213060791
6	49257	698.98197967079	1.71213062134
6	49805	716.64709660526	1.71212965204
6	50373	735.63589938144	1.71213023834
6	50583	738.94792565651	1.71213011406
6	50912	742.32022996144	1.71213003576
6	51404	748.347005632	1.71213036907
6	52061	758.19883889667	1.71213041483
6	52869	769.71288259709	1.71212976783
6	53443	772.98962616943	1.71213000539
6	53715	775.7833728281	1.71213068162
6	54317	785.91633829986	1.7121308167
6	55030	791.67467839339	1.71212967005
6	55683	803.87602346272	1.71213225554
6	56064	808.90089004651	1.71213040776
6	56369	815.85419690976	1.71213159536
6	56757	819.35153733	1.7121308289
6	56934	821.97517537771	1.7121300922
6	57975	832.26602278375	1.71213044875
6	58558	836.27465136721	1.71213025703
6	59553	850.4508122466	1.71213029145
6	59737	855.04184481327	1.71213102247
6	60250	866.97971223415	1.7121307084
6	60444	871.30273703241	1.71213175474
6	61422	897.5952397676	1.71213139994
6	61567	902.71078828493	1.71212965204
6	61746	908.24311240095	1.71213023834
6	62258	921.1941494011	1.71213003576
6	62494	924.35043011697	1.71213261806
6	62668	928.12994594463	1.71213132475
6	63487	936.51472802631	1.71213109726
6	64734	947.81121593876	1.71212976783
6	65318	951.43886219302	1.71213068162
6	65677	960.46305973379	1.71213041483
6	66029	964.65789508897	1.71213010181
6	66809	972.01835658983	1.71213214181
6	67286	982.04014150961	1.71213057122
6	67452	985.56525484862	1.71213040776
6	68269	993.76483852948	1.71212975154
6	68477	996.11582903095	1.71213034087
6	68989	1006.52300474972	1.71213044875
6	69277	1008.75936397076	1.86811943578
6	69527	1011.0184807856	1.71213094712
6	70105	1023.87093380097	1.71213064525
6	70907	1036.31917731367	1.71213029145
6	71160	1042.56500947109	1.71213025703
6	71405	1045.57862602023	1.71213374976
6	71555	1051.15580598486	1.7121300922
6	72494	1064.88075922656	1.71213060791
6	72891	1080.45718799619	1.71212965204
6	73104	1083.44348607468	1.71213062134
6	73286	1087.19976951239	1.71213175474
6	73669	1094.42135223485	1.71212967005
6	73932	1099.4276848213	1.71213023834
6	74571	1109.76426875897	1.71213139994
6	74988	1115.71234789608	1.71213109726
6	75732	1122.41018638346	5.99134367069
6	76336	1124.48264195035	1.71212976783
6	76796	1127.46977461758	2.61658563277
6	76974	1134.87827668418	1.71213011406
6	77135	1137.09985032504	1.71213041483
6	77486	1140.88444116054	1.71213010181
6	77729	1143.7860351873	1.71213004587
6	78511	1156.07468284895	1.71213072422
6	78670	1157.79167540106	1.71213057122
6	78837	1162.88791698292	1.71213040776
6	79868	1173.56331470723	1.7121308289
6	80687	1189.13105120989	1.71213071685
6	80873	1193.60165269052	1.71213044875
6	81294	1198.31081759986	1.71213041615
6	81800	1203.75861197515	1.7121308167
6	82539	1209.47291783315	1.71213034087
6	83064	1216.28498635721	1.71213107063
6	83395	1224.21411196735	1.71213064525
6	83801	1236.28507548651	1.71213029145
6	84249	1248.34928561333	1.71213124576
6	85127	1281.56392805628	1.71212967005
6	86499	1291.84481406507	1.71213360126
6	87125	1297.54584192333	1.71213068162
6	88631	1316.742146569	1.71212976783
6	89555	1324.93520846455	1.71213041483
6	90328	1331.48169596745	1.71213206734
6	90589	1334.62985611004	1.7121307084
6	91049	1345.94429827221	1.71212975154
6	91281	1349.61227910378	1.71213199617
6	91445	1355.35766649509	1.71213011406
6	93229	1376.98170013419	1.71213164362
6	93876	1380.1128204412	1.71213094712
6	95423	1410.11458537525	1.71213064525
6	96201	1430.55184874687	1.71213374976
6	96358	1434.28783389673	1.71213029145
6	96952	1447.80443554659	1.71213060791
6	97380	1464.29571027881	1.71213062134
6	97718	1467.55863878788	2.74741381752
6	98258	1478.38616121537	1.71213000539
6	99272	1486.582401623	1.71213109726
6	99579	1491.68540849231	1.71212967005
6	100350	1497.00840206883	2.64197461527
6	100534	1503.11345919611	1.71213132475
6	100992	1510.30863135442	1.71213068162
6	101219	1512.92562765732	2.2862990388
6	101359	1519.84493017213	1.71213041583
6	101541	1524.23475579264	1.71213004587
6	101760	1526.61541538879	1.71213224041
6	102338	1532.33954454813	4.81149609636
6	102712	1535.80957411195	1.71212975154
6	102983	1537.74828921426	1.71212965204
6	103399	1540.80631114959	1.71212976783
6	104841	1556.61209365311	1.71213347197
6	105387	1561.61884211707	1.71213036907
6	105732	1571.06387518118	1.71213025703
6	106246	1577.87421452123	1.71213034087
6	107080	1595.68638877684	1.71213094712
6	109031	1647.56967374196	1.71213062134
6	109329	1650.11021003189	1.71213000539
6	110554	1669.79865218968	1.71212967005
6	111203	1680.10258493225	1.71213274234
6	112458	1689.1430602735	1.7121300922
6	112713	1692.18162986291	1.71213041583
6	113296	1704.01178887797	1.71213004587
6	113670	1706.2547482107	1.7649972318
6	114053	1710.34695189242	1.71212975154
6	114644	1718.61270905912	1.71213041483
6	115056	1724.17991766923	1.71212976783
6	115571	1729.72058098555	1.71213041615
6	116408	1736.01317252159	1.71213159536
6	116641	1739.96427421558	1.71212965204
6	116983	1750.69545711644	1.71213025703
6	117664	1762.7284480921	1.71213034087
6	117857	1765.04170929863	1.71213121455
6	118119	1770.07895414732	1.71213260582
6	118972	1777.74937834463	1.71213036907
6	119333	1784.31407906323	1.71213029145
6	119775	1795.37547791514	1.71213274585
6	120778	1824.54286878995	1.71213312534
6	121242	1828.93386067491	1.71213000539
6	121541	1833.94640595744	1.71213094712
6	121923	1844.93291471298	1.71212967005
6	122221	1847.49609052103	1.71213226851
6	122621	1852.69076472235	1.71213003576
6	123040	1856.42394560755	1.7121308289
6	123726	1867.41856341217	1.71213139994
6	124342	1871.19394021447	1.7121300922
6	124648	1875.76889271844	1.71213127369
6	125278	1883.83687163815	1.71213057122
6	125729	1892.07844912875	1.71213206734
6	125986	1894.44024759199	2.21946885241
6	126120	1895.78273113801	1.71212975154
6	126625	1901.92536510613	1.71213068162
6	126902	1904.33094275998	1.71213010181
6	127245	1910.41493448834	1.71213041615
6	127569	1915.40529236674	1.71212976783
6	128985	1935.13312950947	1.71212965204
6	129284	1942.95760068409	1.71213044875
6	129599	1945.06346201753	1.71213261806
6	130524	1955.83312783078	1.71213158805
6	130678	1957.90893389603	1.71213029145
6	130952	1960.84748886544	1.71213096797
6	131582	1968.38024357708	1.71213071685
6	131956	1971.69133498747	2.61982813903
6	132215	1978.27184365133	1.71213064525
6	133183	2010.05027702273	1.71213000539
6	133532	2016.05073391119	1.71213102247
6	133706	2023.88146828377	1.71212967005
6	133914	2025.79642617908	1.71213094712
6	134661	2033.23473895809	1.71213107063
6	135126	2044.0464547922	1.7121300922
6	136176	2054.34426796335	1.71213004587
6	137377	2065.54242935451	1.71213291883
6	137919	2076.67788959827	1.71212975154
6	138438	2081.23736947557	1.71213003576
6	138800	2084.13256445924	1.71213178596
6	139027	2089.14269261977	1.71212976783
6	139384	2094.57924903792	1.71213041615
6	139859	2103.15701641297	1.71213040776
6	140062	2108.63769825438	1.71213140477
6	140431	2114.25844934927	4.53924480819
6	141523	2125.49779043174	1.71212965204
6	141710	2127.67572279815	1.71213036907
6	141917	2130.86295991523	1.71213034087
6	142081	2132.65093412095	1.71213044875
6	142514	2140.43116249489	1.7121308167
6	143077	2142.92675902577	1.71213029145
6	143835	2155.73165605628	1.71213011406
6	144233	2166.5544692068	1.71213025703
6	144444	2169.7461557398	1.71213064525
6	144946	2183.373946602	1.71213096797
6	145166	2192.49961084942	1.71213250939
6	145344	2195.79940024917	1.71213062134
6	145488	2199.73154874533	1.71212967005
6	145779	2203.40407557768	1.71213094712
6	147369	2217.75386341231	1.7121300922
6	147877	2221.9964040546	1.7121308289
6	148439	2227.97037764855	1.71213041583
6	149143	2242.71310332972	1.71213109726
6	149452	2252.56110503029	1.71213003576
6	150578	2276.24221649156	1.71212975154
6	151075	2281.6252799833	1.71212976783
6	152166	2292.3191636886	1.71213010181
6	152426	2299.53701318615	1.71212965204
6	152639	2301.25564307194	1.71213211165
6	153197	2312.21078152022	1.71213034087
6	153812	2315.56665682609	1.7121332124
6	154945	2336.08861370327	1.71213124576
6	155655	2342.76654508691	1.71213023834
6	156443	2357.90039660526	1.71213029145
6	156606	2361.62221207001	1.71213068162
6	157263	2378.90385331423	1.71213025703
6	157764	2387.12755729101	1.71213000539
6	158374	2391.70929120265	1.71213274585
6	158794	2395.06521147458	1.9971999607
6	158946	2398.89931872286	1.71212967005
6	159124	2402.18028114836	1.71213004587
6	159654	2404.26270277722	1.71213107063
6	160050	2414.48530637387	1.71213041483
6	160794	2420.57135992167	1.71213041583
[...]
53	87516	1301.65237028127	293.52035606761
53	98610	1480.20616470219	216.23406048054
53	111675	1683.524624734	246.02447962897
53	123730	1867.77003835627	430.57171843079
53	135639	2048.38573206342	814.24105942108
53	147725	2221.65465084761	352.5212846445
53	159914	2413.10910570797	635.34172039036
53	171822	2597.09826828733	251.7956203702
53	183296	2783.39901368109	1313.4454954254
53	197146	2988.56802204976	503.40665995494
53	212163	3223.78554312544	41.919833078067
53	223397	3411.36067043763	466.14693252225
54	19191	223.96551251965	16.943621553521
54	30288	402.37031158713	89.563014737008
54	39967	574.30509765851	358.99897977272
54	51108	746.63487526293	992.91874256382
54	62677	928.22808816852	165.32327869518
54	76378	1124.85318898481	151.42332221553
54	88004	1304.10181895781	0.5175978753443
54	105088	1559.906711748	56.194799248721
54	118680	1776.03724797556	1187.7372510566
54	130093	1947.91198413628	215.17154057804
54	141563	2125.96359242908	918.94156312741
54	154233	2320.36863104456	7.2437078863658
54	167125	2525.69300990627	326.36253579237
54	178005	2700.63140481678	207.37831150205
54	193987	2949.98216102878	662.68265145385
54	205474	3126.30025638531	1077.38407393
54	218109	3316.83877707585	269.80091876314
54	229879	3499.44987123007	340.76607227814
55	19269	224.23841157131	220.75868864557
55	31485	413.77685088132	346.59663675316
55	41852	590.18800314789	999.7615690964
55	56982	827.64649376881	1015.841696103
55	69355	1009.30634983848	714.49765815752
55	81985	1205.76633844934	153.20788565694
55	93476	1378.40068949408	107.40964481145
55	106916	1593.97425782972	173.2596117936
55	121371	1832.23427501032	358.79730524029
55	133747	2024.08429523196	94.369204642511
55	145534	2201.69194463056	866.72859521292
55	157129	2378.31914703306	392.39444911201
55	169252	2567.32085880827	450.55012760375
55	183142	2780.77923159023	729.22482396952
55	196725	2982.81360920579	1224.1471308534
55	209113	3172.2109226467	407.25401877092
55	220079	3346.43050646209	1079.0657136646
56	19348	224.3151743009	2253.9012886138
56	29198	395.99619379882	62.093353228968
56	41691	589.27723898001	167.42744759575
56	52268	767.998003744	1283.7103991272
56	65182	950.96074630618	1302.172860222
56	80469	1187.41892049304	342.33764845096
56	91786	1361.3059195587	607.88111724727
56	102835	1536.10110502632	19.047395895856
56	119021	1781.39063340446	205.27381369809
56	131212	1966.66811286023	461.52571388488
56	142850	2141.74967967839	456.62218494156
56	154632	2330.97028715321	18.023336632283
56	166877	2521.24246558378	54.238228104681
56	179486	2715.08285747587	124.88705143963
56	190832	2908.67909033165	642.26802393263
56	202510	3087.41908746685	31.094333922404
56	215362	3280.5892896073	311.43087474488
56	226476	3455.34968093429	465.0935594514
57	19673	226.46944073324	972.57069298556
57	33571	434.88175600835	448.78000604052
57	45373	625.35078787152	1667.8810577191
57	56198	814.69787728417	23.013316635598
57	69550	1015.45138121304	1759.2342881742
57	83653	1236.17550879603	265.68627738305
57	96386	1434.91857322792	263.98778351225
57	108707	1646.44263121273	8.3287424292987
57	121101	1827.93921430012	311.59704880223
57	133230	2012.12755192492	1521.2478053149
57	145613	2202.17258165674	714.50247647722
57	156813	2373.44616660993	169.40510096229
57	171295	2589.61543155696	404.98346537674
57	182978	2773.90441488913	248.29988400021
57	195128	2961.17935399367	441.10138918186
57	208045	3156.5784394304	156.31254972187
57	221588	3362.31023625107	350.22121098835
57	232904	3541.71312186633	125.30726645653
58	19757	226.91876689375	591.42917396794
58	30781	405.09704466647	300.62591824893
58	44587	617.82057715703	614.2282458861
58	54663	789.96254872334	301.62544354466
58	73455	1092.7092225648	58.840929079237
58	84916	1279.85179838623	579.82386713717
58	99363	1489.97327882226	1089.8210187398
58	110184	1668.08652251963	360.61052318669
58	121636	1843.22078504293	230.02519046178
58	133573	2022.16933861372	59.530361839319
58	145354	2198.01941907528	61.707461224937
58	158808	2397.18718905281	141.64168331327
58	170610	2583.57847017201	574.11916967643
58	185114	2807.16808856643	116.14668951618
58	197587	2997.99239862031	195.57449591409
58	208782	3169.7404767308	53.415954713753
58	219711	3341.61107233398	302.57329800769
58	231046	3520.09866623658	99.2637957783
59	20025	229.90352509722	1420.4424793688
59	30866	406.05473445164	19.357186378976
59	46978	653.42213271411	323.62900436958
59	59246	848.73868195515	535.82213012915
59	70602	1034.60704702222	480.91867679422
59	83573	1234.57294519506	216.24834716326
59	96209	1432.57570360528	664.64240406655
59	107411	1607.90285466968	0.7909664951079
59	119105	1782.60194877178	1028.5764856481
59	130526	1956.19680360458	993.31519288408
59	142536	2141.21462873432	2684.5924178931
59	156295	2356.18826631381	599.92473693014
59	167988	2534.54988272771	347.47076784156
59	179903	2722.18498427277	344.86065654038
59	193694	2943.20532631012	219.16678629477
59	204911	3123.32431631982	577.77459271962
59	218609	3325.08490585306	9.9455258601953
59	229963	3500.89073067461	502.16198929332
60	20103	229.93423114748	904.85010846405
60	31045	407.13303052917	99.925498501414
60	42666	596.7235577099	152.63002454037
60	60768	877.46950465336	453.84162046284
60	71597	1056.01004245277	88.358126637134
60	86910	1296.15289948326	1264.2324786683
60	99857	1494.23491386567	108.24083534242
60	112579	1690.7858826637	731.47580630606
60	124475	1874.58219562413	709.45610490041
60	136855	2062.09561898888	78.871163158971
60	150623	2276.95866577163	21.923765781039
60	161878	2449.41639461911	2010.3991995056
60	174480	2655.90312538391	1607.0392350918
60	187026	2851.05383434961	981.52221871053
60	200407	3050.4758565953	255.79688777698
60	212334	3228.05166702397	331.5617796782
60	225319	3441.3984563018	374.3300984166
61	20371	233.49604955312	289.55674675187
61	34575	453.48231054346	464.29255105865
61	48040	671.24900656388	427.61882395593
61	61247	895.88310836766	1108.6250078338
61	74321	1108.05213735903	172.88055105573
61	85904	1289.56185381266	140.84313052753
61	98298	1478.4490818738	1432.6591430729
61	109544	1654.88046138618	214.10926916741
61	123476	1865.70643201223	413.98473962016
61	137632	2075.04928145363	98.313835906315
61	149803	2259.46725212748	1068.3049482499
61	161335	2443.53148920547	1370.9239037821
61	173066	2623.21146362512	163.85591203368
61	184515	2799.68395939231	1768.2831398858
61	196305	2975.68733932937	1673.9373214456
61	208307	3161.10318211547	206.89451117152
61	219113	3336.34884417424	23.115957262884
61	232199	3536.81136088308	168.97560393797
62	20453	235.1298199902	0.88772711516294
62	32500	424.57371885888	449.83474126075
62	44171	614.18151822356	221.71279672586
62	54423	788.26089809383	289.4277737131
62	65876	963.53131131734	599.01926869084
62	79911	1177.27394236951	556.18041429479
62	92662	1372.47783702629	816.01805821868
62	105935	1576.62159802094	890.02492395627
62	117108	1755.04584141462	397.40521427053
62	129679	1945.87127763072	149.35552638622
62	144621	2175.03427077511	764.6827530745
62	159169	2402.3223045039	2667.8677134622
62	172001	2599.36340610585	508.05583392347
62	183532	2784.57085967858	57.616466771695
62	195557	2965.37514077744	302.82663940336
62	207232	3147.61135767286	430.54653011891
62	219894	3343.41888437313	141.62095707466
62	232434	3538.66404722053	1358.1422234519
63	20628	235.41553108645	214.7520208573
63	32865	427.73721653572	729.41922587057
63	43512	607.63213375777	286.87751061236
63	54581	788.87813363507	120.35514332136
63	67579	986.82113591523	456.24941838397
63	82299	1207.87398405477	23.270603533038
63	94539	1395.71049053237	251.92460690353
63	107091	1596.52264653811	304.87298080544
63	118202	1771.54761723493	981.09249353686
63	130786	1959.63542842307	912.72947705502
63	142115	2133.10689907091	360.86254860307
63	153978	2316.85454984981	80.418199387491
63	165461	2505.62887162721	1424.3352069007
63	181525	2754.1568881314	167.64733606207
63	193452	2938.56663789087	194.77519694266
63	204677	3121.79550534691	481.91277750675
63	216952	3308.22816031433	614.56098281422
63	228137	3482.16273550645	280.2216108955
64	20711	236.04088815702	88.753065707097
64	34232	446.90612673389	649.12135554391
64	45540	630.54521136883	172.85308899639
64	56120	814.1420653144	986.20908380478
64	67974	990.75653329085	149.28326393536
64	78960	1163.91588860917	461.10279242858
64	91546	1357.17206659755	143.71766420843
64	103769	1549.5072109112	798.5933559467
64	116076	1734.30104092623	126.17551229355
64	128351	1930.73428548232	249.32543343003
64	140271	2112.59993832087	222.32606589458
64	151444	2287.34970071684	10.853288133148
64	162483	2459.39523115566	227.92874671638
64	175136	2670.13721994064	0.31266265739283
64	186848	2846.89473445049	38.493533946601
64	199900	3040.86420942461	1340.9818294471
64	211146	3216.95317312737	169.6289844383
64	223475	3411.4201413137	236.44912967649
65	20945	237.61394506409	272.33695772738
65	32946	428.59830233896	596.40738692515
65	44012	613.31660125252	510.08069480688
65	54503	788.73449892581	505.2083874497
65	66295	968.22664902858	5.992184312331
65	77515	1142.07390514143	880.45986591102
65	88265	1313.3841875483	1883.4971150273
65	101408	1522.52262574677	834.48060776099
65	113010	1702.2996588321	762.01839635885
65	124818	1881.16786235543	80.493739908094
65	135964	2052.63213791748	111.74959803142
65	148227	2226.65245307685	631.99399205961
65	158990	2400.46815110249	983.93293438953
65	174145	2647.94236115724	41.303321402483
65	186349	2830.06290179574	193.60523482522
65	198723	3017.16199356984	1654.3567090118
65	209784	3191.56102393927	316.33954232961
65	223863	3413.42665556246	712.26534006107
65	235123	3584.95256621523	176.9637420532
66	21206	239.80228174818	92.172011664196
66	32419	423.76902609878	117.30294723792
66	43433	607.38508902522	1331.2206459864
66	57368	829.99745707594	272.35811744704
66	70368	1030.55488864621	146.43956416046
66	81641	1202.27007933048	10.42318002509
66	92976	1375.26956849057	102.35404923417
66	109863	1662.16943113526	524.3281440451
66	122813	1854.95680969385	277.02221992197
66	135886	2052.55538549035	507.11035917566
66	150705	2278.30099988426	189.16288073813
66	162404	2458.43105969569	33.530277994061
66	173666	2633.09572508821	90.023999313869
66	187184	2854.10546469334	717.70228307056
66	198990	3027.44928177441	247.60340662971
66	210125	3199.44601274769	33.708206803364
66	222159	3376.21369746372	1058.1527657605
66	233578	3560.25185947866	2144.1990208977
67	21396	243.10394827589	113.18727263432
67	37213	532.99076344025	386.62704148976
67	50766	741.53911980356	7.319117410117
67	63316	936.18569810433	93.855020284955
67	78335	1154.36255212473	139.86027143424
67	90610	1342.71384030525	127.44774705205
67	102183	1531.50525000465	20.768130538849
67	113844	1709.32908124795	257.65857223401
67	129601	1945.35721788158	25.990598866927
67	140915	2120.78757290348	2248.2434656687
67	154155	2320.3616954683	2869.7169595132
67	167724	2531.41141949309	1267.629757142
67	180339	2727.41981830659	363.22456187814
67	190754	2906.97711433817	549.44981347482
67	204014	3112.78495274668	211.25026593994
67	221046	3352.91592626015	534.02030363134
67	232356	3538.58126474553	254.35556012705
68	21562	250.92654041372	231.73947517717
68	36895	506.41770633449	631.28053000895
68	48751	691.2085880034	1083.9409383105
68	59929	865.03455601829	7.4242467122717
68	72169	1063.16862861865	63.059052999363
68	84517	1264.60517213696	827.48250096079
68	96630	1446.09230493868	84.711003163871
68	113088	1702.58636724612	169.25624684259
68	125050	1882.47227322034	590.06104962167
68	140993	2120.88940517516	408.05234161433
68	152652	2307.71498421419	28.917512010753
68	168988	2561.63130497536	1186.8781984068
68	181006	2740.24630404408	52.328431589149
68	193615	2941.68694499996	152.51475689591
68	204172	3114.19042089731	229.12127532265
68	215898	3297.73160171908	1470.7635944364
68	230464	3508.42842392083	207.36292371477
69	21916	256.0829705231	491.0091375692
69	36650	493.47777394037	345.79114877967
69	47876	666.42361776029	449.99452328584
69	59087	847.24694182571	1903.6900562256
69	73295	1088.60732609137	1513.4916972206
69	85403	1284.43223295997	2787.899060969
69	97721	1468.21051663972	126.08516200298
69	108861	1647.21720985592	119.33565363957
69	120502	1822.9361621112	145.22521557331
69	134005	2026.96870058102	2141.1384022451
69	145790	2203.71637563455	33.424586289646
69	164648	2496.17626676142	425.47433980196
69	176150	2683.54401627377	192.91726119507
69	187605	2860.85030941246	528.07457378989
69	200161	3044.50318944593	113.12431234585
69	212491	3228.74766254522	1649.4273414011
69	228622	3484.0140998486	443.09602992142
70	22081	260.00014406869	519.89616638191
70	34975	462.00162402752	768.6119549121
70	49269	702.51971779951	623.27057799964
70	61949	913.77526461368	462.19794896152
70	74991	1115.98956693954	1520.8499130229
70	85983	1289.74589458001	1506.8474966211
70	99698	1492.82442658618	1231.6350611631
70	114921	1723.18104430209	32.028041748921
70	126491	1900.25779756091	354.19956739634
70	139419	2100.28720105565	262.40676405149
70	151202	2283.42444879138	52.325162941377
70	163740	2491.05155665619	919.89603893545
70	177849	2699.90998099625	1809.2889603731
70	189018	2872.04061681219	157.43834068533
70	200329	3050.41260621699	1280.1685089529
70	211725	3221.68971017461	353.69936596263
70	222760	3393.2903549436	1195.9833235188
70	234888	3582.78981366116	134.34637406833
71	22159	260.43819716817	129.51074847923
71	34392	449.77815863122	254.25497989967
71	45698	632.23437203055	845.19323208601
71	57290	829.90568750758	1322.672929869
71	70120	1024.61517692521	471.39845089366
71	81064	1196.59868718371	162.83588148129
71	92423	1370.04590140609	418.89073278155
71	103535	1548.48566616802	383.14885053613
71	115263	1728.0084505694	1836.7250374268
71	127096	1908.70280407219	651.86912722997
71	139232	2092.86711862177	146.39506898864
71	150128	2267.81715955044	1086.7444094392
71	161413	2444.55208020198	24.037858723843
71	172988	2621.84291796168	326.66143214783
71	185297	2811.42354862949	435.25800114869
71	203593	3105.25124779744	292.86302831765
71	215561	3290.07555704817	263.85467518279
71	229547	3494.78671890206	863.13247185503
72	22566	262.58546677007	1029.8695626504
72	33917	441.82682252197	1712.4074142969
72	48120	672.846078737	1157.7754169343
72	59591	853.3297137908	524.99388180423
72	72086	1061.77641333353	876.16356195469
72	83915	1240.81924243473	23.246662531541
72	95840	1425.22610279271	18.960388673592
72	108074	1616.35486983656	254.91348578893
72	119947	1801.17609113308	536.0654499714
72	133387	2014.33860288872	128.76137325474
72	146337	2206.3343225828	118.25675613708
72	158378	2392.14275609027	305.05225990969
72	169882	2575.73371891879	69.625809778585
72	185661	2815.44939241739	884.74593285884
72	197509	2997.71155139873	89.917778959306
72	210204	3200.67523412396	3137.9159572157
72	222395	3378.68345315073	999.51037218776
72	234476	3577.65244640323	280.50109586427
73	22732	265.51311476078	873.12775540271
73	35053	463.39910621805	2093.1058235937
73	48461	681.36012696287	286.70727621337
73	59775	863.2257252018	803.7968873348
73	70524	1034.49796871429	564.49437397657
73	82381	1208.97305846488	339.99382587579
73	94461	1395.21748862773	36.169797468849
73	106089	1577.66554446519	1167.5856796782
73	117681	1763.32957808408	254.73701287412
73	130015	1947.71807823435	403.4909104707
73	142362	2140.16114907332	196.74990228966
73	153455	2314.41110152562	612.00101670288
73	167909	2534.26036002049	1377.9127292008
73	183453	2784.4779436672	746.75130850479
73	195470	2964.21116384688	657.03471557081
73	206307	3135.80971548209	951.8285041462
73	216871	3307.40082871429	1701.4713937216
73	228367	3482.8544291317	30.456690255552
74	22922	268.9374470172	1141.2866320217
74	35709	469.38307183512	65.967789699066
74	47565	662.1227147467	131.27974630876
74	58339	835.59256907588	1650.2524231934
74	71203	1043.86649227047	141.67969359897
74	84099	1246.63715436757	1756.2836981937
74	95998	1428.83971499711	383.74666154337
74	111444	1682.24994345228	823.29172369822
74	128848	1935.09569521999	31.731446347954
74	140509	2115.05303976878	342.90702284801
74	154792	2334.37648245751	199.2743586288
74	167044	2524.86028732784	1670.3376765271
74	178686	2710.48446716181	1164.7401784656
74	195881	2969.10028551008	1491.9189730139
74	207797	3152.79715675214	71.76689525269
74	220967	3352.65447244172	36.644959234503
74	233500	3558.70774243855	666.64629699769
75	23001	269.29688467167	62.418092030113
75	34076	444.66041980628	120.82932748193
75	44845	619.60181775205	888.47900954301
75	58099	834.10631785074	252.69469338269
75	69100	1007.08528760588	385.10012164216
75	82810	1214.57285528658	1648.4821305381
75	93987	1386.39931735514	1517.5921218302
75	107256	1604.47529316154	3694.6317697342
75	118600	1775.72247044457	224.05442597101
75	134404	2031.52260788746	891.1776725761
75	147904	2221.99721959575	1123.0033925404
75	159325	2402.55057170659	244.54035247796
75	170196	2580.16208962064	447.84135239396
75	181843	2760.09365994382	2974.5147682235
75	193135	2933.85216857965	375.00258348083
75	207542	3151.05538969214	439.62965549282
75	220889	3352.4208332196	250.21366582868
75	233336	3550.04598936425	232.83124568071
76	23156	270.67366165712	481.71491234528
76	35461	465.63170897266	178.26447348592
76	46560	648.50281536273	436.89711184206
76	60689	876.75656693018	60.915228588217
76	75491	1120.27056183412	0.78031162876619
76	86506	1292.60691647437	383.98221275023
76	98124	1477.76459266385	78.107839604435
76	110340	1668.42230661896	561.58822895281
76	122223	1847.6507641273	231.27330176913
76	134755	2041.60230847331	2.5148635789044
76	147482	2218.26701617533	340.35802848316
76	160165	2415.08036851822	1.0242946426044
76	172489	2611.20548914553	1053.8157485448
76	183841	2786.05016081192	115.0952768425
76	196480	2977.50860534663	2590.4944664273
76	209966	3195.52073133083	500.47112364355
76	224555	3427.60104664778	94.131627600307
76	235859	3599.0263954573	393.6963279313
77	23711	275.53292694127	51.488305316737
77	36495	491.95799822426	3086.1259352742
77	48930	696.81310288161	294.76505420533
77	63003	934.06105423348	755.97924794948
77	75150	1116.94883717898	189.6665940515
77	86299	1291.49353040227	628.14590902225
77	97384	1464.53237988736	15.431676088711
77	108551	1645.48863040848	580.08470808925
77	121558	1842.46690826858	168.01949555038
77	136464	2059.24960536838	209.06665367485
77	151704	2290.39627560412	372.80037850019
77	165723	2509.50331778276	13.787726862668
77	175898	2682.42613754178	121.8715139539
77	188940	2871.78319173722	66.888889822746
77	201618	3066.96383524282	136.18435799994
77	214689	3276.41073576086	972.54552465732
77	226801	3462.96442366902	812.94971383996
78	23896	278.83770468814	447.46129448358
78	36415	491.42392896605	62.264954196347
78	49010	697.26984904945	567.44738860169
78	60611	876.58111083282	119.55826686417
78	72931	1081.73135545334	112.5137151812
78	84994	1280.62921329636	422.67985631905
78	97207	1462.58357965747	338.77999776782
78	108629	1645.85754312062	712.50477912469
78	120424	1822.83073566461	98.853793247184
78	132871	2005.42858650068	46.430694938609
78	145171	2194.08726962783	285.85948124311
78	157050	2377.98015828237	1955.6351333975
78	169534	2569.44886502618	517.39043057096
78	183763	2785.65970755029	479.18460059318
78	194971	2960.6156841476	34.899584937262
78	206227	3135.24834513231	135.44291492118
78	217676	3312.30339066462	69.330636688695
78	230384	3506.76976811535	458.26072881682
79	24588	301.7643825064	666.31053170728
79	35896	476.41085374827	53.215601075735
79	47056	653.75958296476	71.438594319635
79	66137	966.69485090318	431.06326617108
79	78881	1163.84338564405	391.19650163256
79	91468	1357.05931445522	78.412981969201
79	101946	1530.56869203286	728.71982682182
79	115761	1732.53260097026	30.574480563105
79	126930	1905.73807219773	408.10206874156
79	138546	2082.42043267328	148.69911100057
79	149571	2257.48429269363	308.44976381029
79	161011	2435.08217755043	603.17182650277
79	173240	2624.09475593749	18.020905712771
79	186427	2830.19944747683	712.7360546078
79	197926	3003.34651308277	288.03805317088
79	211227	3217.56689009842	256.26701995129
79	224321	3426.28587126691	1227.3411440422

