version 3
run N75-17-20260518-02:27:13-159888
attr configname N75
attr datetime 20260518-02:27:13
attr datetimef 20260518-022713
attr experiment N75
attr inifile omnetpp.ini
attr iterationvars "$0=\"avg\""
attr iterationvarsd avg
attr iterationvarsf avg-
attr measurement "$0=\"avg\""
attr network test2.LoRaNetworkTest
attr processid 159888
attr repetition 17
attr replication #17
attr resultdir results
attr runnumber 17
attr seedset 17
config extends General
config **.numPatients 75
config network test2.LoRaNetworkTest
config sim-time-limit 1h
config warmup-period 60s
config simtime-resolution -11
config repeat 30
config rng-class cMersenneTwister
config record-eventlog false
config **.numPatients 20
config **.HospitalServer.app[0].queueLength:vector.vector-recording true
config **.HospitalServer.app[0].urgentWaitTime:vector.vector-recording true
config **.HospitalServer.app[0].normalWaitTime:vector.vector-recording true
config **.HospitalServer.app[0].urgentEndToEndDelay:vector.vector-recording true
config **.HospitalServer.app[0].normalEndToEndDelay:vector.vector-recording true
config **.loRaNodes[*].app[0].emergencyVariate:vector.vector-recording true
config **.vector-recording false
config **.loRaNodes[0].**.initialX "300m + uniform(-10m, 10m)"
config **.loRaNodes[0].**.initialY "250m + uniform(-8m, 8m)"
config **.loRaNodes[1].**.initialX "450m + uniform(-10m, 10m)"
config **.loRaNodes[1].**.initialY "250m + uniform(-8m, 8m)"
config **.loRaNodes[2].**.initialX "600m + uniform(-10m, 10m)"
config **.loRaNodes[2].**.initialY "250m + uniform(-8m, 8m)"
config **.loRaNodes[3].**.initialX "750m + uniform(-10m, 10m)"
config **.loRaNodes[3].**.initialY "250m + uniform(-8m, 8m)"
config **.loRaNodes[4].**.initialX "900m + uniform(-10m, 10m)"
config **.loRaNodes[4].**.initialY "250m + uniform(-8m, 8m)"
config **.loRaNodes[5].**.initialX "1050m + uniform(-10m, 10m)"
config **.loRaNodes[5].**.initialY "250m + uniform(-8m, 8m)"
config **.loRaNodes[6].**.initialX "1200m + uniform(-10m, 10m)"
config **.loRaNodes[6].**.initialY "250m + uniform(-8m, 8m)"
config **.loRaNodes[7].**.initialX "1350m + uniform(-10m, 10m)"
config **.loRaNodes[7].**.initialY "250m + uniform(-8m, 8m)"
config **.loRaNodes[8].**.initialX "1500m + uniform(-10m, 10m)"
config **.loRaNodes[8].**.initialY "250m + uniform(-8m, 8m)"
config **.loRaNodes[9].**.initialX "1650m + uniform(-10m, 10m)"
config **.loRaNodes[9].**.initialY "250m + uniform(-8m, 8m)"
config **.loRaNodes[10].**.initialX "300m + uniform(-10m, 10m)"
config **.loRaNodes[10].**.initialY "370m + uniform(-8m, 8m)"
config **.loRaNodes[11].**.initialX "450m + uniform(-10m, 10m)"
config **.loRaNodes[11].**.initialY "370m + uniform(-8m, 8m)"
config **.loRaNodes[12].**.initialX "600m + uniform(-10m, 10m)"
config **.loRaNodes[12].**.initialY "370m + uniform(-8m, 8m)"
config **.loRaNodes[13].**.initialX "750m + uniform(-10m, 10m)"
config **.loRaNodes[13].**.initialY "370m + uniform(-8m, 8m)"
config **.loRaNodes[14].**.initialX "900m + uniform(-10m, 10m)"
config **.loRaNodes[14].**.initialY "370m + uniform(-8m, 8m)"
config **.loRaNodes[15].**.initialX "1050m + uniform(-10m, 10m)"
config **.loRaNodes[15].**.initialY "370m + uniform(-8m, 8m)"
config **.loRaNodes[16].**.initialX "1200m + uniform(-10m, 10m)"
config **.loRaNodes[16].**.initialY "370m + uniform(-8m, 8m)"
config **.loRaNodes[17].**.initialX "1350m + uniform(-10m, 10m)"
config **.loRaNodes[17].**.initialY "370m + uniform(-8m, 8m)"
config **.loRaNodes[18].**.initialX "1500m + uniform(-10m, 10m)"
config **.loRaNodes[18].**.initialY "370m + uniform(-8m, 8m)"
config **.loRaNodes[19].**.initialX "1650m + uniform(-10m, 10m)"
config **.loRaNodes[19].**.initialY "370m + uniform(-8m, 8m)"
config **.loRaNodes[20].**.initialX "300m + uniform(-10m, 10m)"
config **.loRaNodes[20].**.initialY "490m + uniform(-8m, 8m)"
config **.loRaNodes[21].**.initialX "450m + uniform(-10m, 10m)"
config **.loRaNodes[21].**.initialY "490m + uniform(-8m, 8m)"
config **.loRaNodes[22].**.initialX "600m + uniform(-10m, 10m)"
config **.loRaNodes[22].**.initialY "490m + uniform(-8m, 8m)"
config **.loRaNodes[23].**.initialX "750m + uniform(-10m, 10m)"
config **.loRaNodes[23].**.initialY "490m + uniform(-8m, 8m)"
config **.loRaNodes[24].**.initialX "900m + uniform(-10m, 10m)"
config **.loRaNodes[24].**.initialY "490m + uniform(-8m, 8m)"
config **.loRaNodes[25].**.initialX "1050m + uniform(-10m, 10m)"
config **.loRaNodes[25].**.initialY "490m + uniform(-8m, 8m)"
config **.loRaNodes[26].**.initialX "1200m + uniform(-10m, 10m)"
config **.loRaNodes[26].**.initialY "490m + uniform(-8m, 8m)"
config **.loRaNodes[27].**.initialX "1350m + uniform(-10m, 10m)"
config **.loRaNodes[27].**.initialY "490m + uniform(-8m, 8m)"
config **.loRaNodes[28].**.initialX "1500m + uniform(-10m, 10m)"
config **.loRaNodes[28].**.initialY "490m + uniform(-8m, 8m)"
config **.loRaNodes[29].**.initialX "1650m + uniform(-10m, 10m)"
config **.loRaNodes[29].**.initialY "490m + uniform(-8m, 8m)"
config **.loRaNodes[30].**.initialX "300m + uniform(-10m, 10m)"
config **.loRaNodes[30].**.initialY "610m + uniform(-8m, 8m)"
config **.loRaNodes[31].**.initialX "450m + uniform(-10m, 10m)"
config **.loRaNodes[31].**.initialY "610m + uniform(-8m, 8m)"
config **.loRaNodes[32].**.initialX "600m + uniform(-10m, 10m)"
config **.loRaNodes[32].**.initialY "610m + uniform(-8m, 8m)"
config **.loRaNodes[33].**.initialX "750m + uniform(-10m, 10m)"
config **.loRaNodes[33].**.initialY "610m + uniform(-8m, 8m)"
config **.loRaNodes[34].**.initialX "900m + uniform(-10m, 10m)"
config **.loRaNodes[34].**.initialY "610m + uniform(-8m, 8m)"
config **.loRaNodes[35].**.initialX "1050m + uniform(-10m, 10m)"
config **.loRaNodes[35].**.initialY "610m + uniform(-8m, 8m)"
config **.loRaNodes[36].**.initialX "1200m + uniform(-10m, 10m)"
config **.loRaNodes[36].**.initialY "610m + uniform(-8m, 8m)"
config **.loRaNodes[37].**.initialX "1350m + uniform(-10m, 10m)"
config **.loRaNodes[37].**.initialY "610m + uniform(-8m, 8m)"
config **.loRaNodes[38].**.initialX "1500m + uniform(-10m, 10m)"
config **.loRaNodes[38].**.initialY "610m + uniform(-8m, 8m)"
config **.loRaNodes[39].**.initialX "1650m + uniform(-10m, 10m)"
config **.loRaNodes[39].**.initialY "610m + uniform(-8m, 8m)"
config **.loRaNodes[40].**.initialX "300m + uniform(-10m, 10m)"
config **.loRaNodes[40].**.initialY "730m + uniform(-8m, 8m)"
config **.loRaNodes[41].**.initialX "450m + uniform(-10m, 10m)"
config **.loRaNodes[41].**.initialY "730m + uniform(-8m, 8m)"
config **.loRaNodes[42].**.initialX "600m + uniform(-10m, 10m)"
config **.loRaNodes[42].**.initialY "730m + uniform(-8m, 8m)"
config **.loRaNodes[43].**.initialX "750m + uniform(-10m, 10m)"
config **.loRaNodes[43].**.initialY "730m + uniform(-8m, 8m)"
config **.loRaNodes[44].**.initialX "900m + uniform(-10m, 10m)"
config **.loRaNodes[44].**.initialY "730m + uniform(-8m, 8m)"
config **.loRaNodes[45].**.initialX "1050m + uniform(-10m, 10m)"
config **.loRaNodes[45].**.initialY "730m + uniform(-8m, 8m)"
config **.loRaNodes[46].**.initialX "1200m + uniform(-10m, 10m)"
config **.loRaNodes[46].**.initialY "730m + uniform(-8m, 8m)"
config **.loRaNodes[47].**.initialX "1350m + uniform(-10m, 10m)"
config **.loRaNodes[47].**.initialY "730m + uniform(-8m, 8m)"
config **.loRaNodes[48].**.initialX "1500m + uniform(-10m, 10m)"
config **.loRaNodes[48].**.initialY "730m + uniform(-8m, 8m)"
config **.loRaNodes[49].**.initialX "1650m + uniform(-10m, 10m)"
config **.loRaNodes[49].**.initialY "730m + uniform(-8m, 8m)"
config **.loRaNodes[50].**.initialX "300m + uniform(-10m, 10m)"
config **.loRaNodes[50].**.initialY "850m + uniform(-8m, 8m)"
config **.loRaNodes[51].**.initialX "450m + uniform(-10m, 10m)"
config **.loRaNodes[51].**.initialY "850m + uniform(-8m, 8m)"
config **.loRaNodes[52].**.initialX "600m + uniform(-10m, 10m)"
config **.loRaNodes[52].**.initialY "850m + uniform(-8m, 8m)"
config **.loRaNodes[53].**.initialX "750m + uniform(-10m, 10m)"
config **.loRaNodes[53].**.initialY "850m + uniform(-8m, 8m)"
config **.loRaNodes[54].**.initialX "900m + uniform(-10m, 10m)"
config **.loRaNodes[54].**.initialY "850m + uniform(-8m, 8m)"
config **.loRaNodes[55].**.initialX "1050m + uniform(-10m, 10m)"
config **.loRaNodes[55].**.initialY "850m + uniform(-8m, 8m)"
config **.loRaNodes[56].**.initialX "1200m + uniform(-10m, 10m)"
config **.loRaNodes[56].**.initialY "850m + uniform(-8m, 8m)"
config **.loRaNodes[57].**.initialX "1350m + uniform(-10m, 10m)"
config **.loRaNodes[57].**.initialY "850m + uniform(-8m, 8m)"
config **.loRaNodes[58].**.initialX "1500m + uniform(-10m, 10m)"
config **.loRaNodes[58].**.initialY "850m + uniform(-8m, 8m)"
config **.loRaNodes[59].**.initialX "1650m + uniform(-10m, 10m)"
config **.loRaNodes[59].**.initialY "850m + uniform(-8m, 8m)"
config **.loRaNodes[60].**.initialX "300m + uniform(-10m, 10m)"
config **.loRaNodes[60].**.initialY "970m + uniform(-8m, 8m)"
config **.loRaNodes[61].**.initialX "450m + uniform(-10m, 10m)"
config **.loRaNodes[61].**.initialY "970m + uniform(-8m, 8m)"
config **.loRaNodes[62].**.initialX "600m + uniform(-10m, 10m)"
config **.loRaNodes[62].**.initialY "970m + uniform(-8m, 8m)"
config **.loRaNodes[63].**.initialX "750m + uniform(-10m, 10m)"
config **.loRaNodes[63].**.initialY "970m + uniform(-8m, 8m)"
config **.loRaNodes[64].**.initialX "900m + uniform(-10m, 10m)"
config **.loRaNodes[64].**.initialY "970m + uniform(-8m, 8m)"
config **.loRaNodes[65].**.initialX "1050m + uniform(-10m, 10m)"
config **.loRaNodes[65].**.initialY "970m + uniform(-8m, 8m)"
config **.loRaNodes[66].**.initialX "1200m + uniform(-10m, 10m)"
config **.loRaNodes[66].**.initialY "970m + uniform(-8m, 8m)"
config **.loRaNodes[67].**.initialX "1350m + uniform(-10m, 10m)"
config **.loRaNodes[67].**.initialY "970m + uniform(-8m, 8m)"
config **.loRaNodes[68].**.initialX "1500m + uniform(-10m, 10m)"
config **.loRaNodes[68].**.initialY "970m + uniform(-8m, 8m)"
config **.loRaNodes[69].**.initialX "1650m + uniform(-10m, 10m)"
config **.loRaNodes[69].**.initialY "970m + uniform(-8m, 8m)"
config **.loRaNodes[70].**.initialX "300m + uniform(-10m, 10m)"
config **.loRaNodes[70].**.initialY "1090m + uniform(-8m, 8m)"
config **.loRaNodes[71].**.initialX "450m + uniform(-10m, 10m)"
config **.loRaNodes[71].**.initialY "1090m + uniform(-8m, 8m)"
config **.loRaNodes[72].**.initialX "600m + uniform(-10m, 10m)"
config **.loRaNodes[72].**.initialY "1090m + uniform(-8m, 8m)"
config **.loRaNodes[73].**.initialX "750m + uniform(-10m, 10m)"
config **.loRaNodes[73].**.initialY "1090m + uniform(-8m, 8m)"
config **.loRaNodes[74].**.initialX "900m + uniform(-10m, 10m)"
config **.loRaNodes[74].**.initialY "1090m + uniform(-8m, 8m)"
config **.HospitalServer.numApps 1
config **.HospitalServer.app[0].typename HospitalServerApp
config **.HospitalServer.app[0].destPort 2000
config **.HospitalServer.app[0].localPort 1000
config **.HospitalServer.app[0].adrMethod "\"avg\""
config **.HospitalServer.**.evaluateADRinServer true
config **.HospitalServer.app[0].queueSize 50
config **.HospitalServer.app[0].expo_rate_lambda 0.83
config **.loRaGateway.numUdpApps 1
config **.loRaGateway.packetForwarder.localPort 2000
config **.loRaGateway.packetForwarder.destPort 1000
config **.loRaGateway.packetForwarder.destAddresses "\"HospitalServer\""
config **.loRaGateway.**.initFromDisplayString false
config **.loRaGateway.**.initialX 544.00m
config **.loRaGateway.**.initialY 544.00m
config **.loRaNodes[*].numApps 1
config **.loRaNodes[*].app[0].typename PatientSensorApp
config **.loRaNodes[*].app[0].expo_rate_lambda 0.00175
config **.loRaNodes[*].app[0].emergencyThreshold 50
config **.loRaNodes[*].**.timeToFirstPacket exponential(24s)
config **.loRaNodes[*].**.timeToNextPacket exponential(24s)
config **.loRaNodes[*].**.numberOfPacketsToSend 0
config **.loRaNodes[*].**initialLoRaSF 12
config **.loRaNodes[*].**initialLoRaTP 14dBm
config **.loRaNodes[*].**initialLoRaBW "125 kHz"
config **.loRaNodes[*].**initialLoRaCR 4
config **.loRaNodes[*].**.initFromDisplayString false
config **.loRaNodes[*].**.evaluateADRinNode true
config **.loRaNodes[*].LoRaNic.radio.energyConsumer.typename LoRaEnergyConsumer
config **.loRaNodes[*].**.energySourceModule "\"^.IdealEpEnergyStorage\""
config **.loRaNodes[*].LoRaNic.radio.energyConsumer.configFile "xmldoc(\"energyConsumptionParam.xml\")"
config **.maxTransmissionDuration 4s
config **.energyDetection -110dBm
config **.radio.radioMediumModule "\"LoRaMedium\""
config **.minInterferenceTime 0s
config **.constraintAreaMinX 0m
config **.constraintAreaMinY 0m
config **.constraintAreaMinZ 0m
config **.constraintAreaMaxZ 0m
config **.constraintAreaMaxX 3000.0m
config **.constraintAreaMaxY 3000.0m

vector 0 LoRaNetworkTest.HospitalServer.app[0] queueLength:vector ETV
attr recordingmode vector
attr title "Total queue length"
vector 1 LoRaNetworkTest.HospitalServer.app[0] normalWaitTime:vector ETV
attr recordingmode vector
attr title "Normal wait time (s)"
vector 2 LoRaNetworkTest.HospitalServer.app[0] normalEndToEndDelay:vector ETV
attr recordingmode vector
attr title "Normal end-to-end delay (s)"
vector 3 LoRaNetworkTest.loRaNodes[27].app[0] emergencyVariate:vector ETV
attr recordingmode vector
attr title "Exponential variate samples"
vector 4 LoRaNetworkTest.loRaNodes[22].app[0] emergencyVariate:vector ETV
attr recordingmode vector
attr title "Exponential variate samples"
vector 5 LoRaNetworkTest.loRaNodes[44].app[0] emergencyVariate:vector ETV
attr recordingmode vector
attr title "Exponential variate samples"
vector 6 LoRaNetworkTest.loRaNodes[2].app[0] emergencyVariate:vector ETV
attr recordingmode vector
attr title "Exponential variate samples"
vector 7 LoRaNetworkTest.loRaNodes[36].app[0] emergencyVariate:vector ETV
attr recordingmode vector
attr title "Exponential variate samples"
vector 8 LoRaNetworkTest.loRaNodes[33].app[0] emergencyVariate:vector ETV
attr recordingmode vector
attr title "Exponential variate samples"
vector 9 LoRaNetworkTest.loRaNodes[3].app[0] emergencyVariate:vector ETV
attr recordingmode vector
attr title "Exponential variate samples"
vector 10 LoRaNetworkTest.loRaNodes[9].app[0] emergencyVariate:vector ETV
attr recordingmode vector
attr title "Exponential variate samples"
vector 11 LoRaNetworkTest.loRaNodes[18].app[0] emergencyVariate:vector ETV
attr recordingmode vector
attr title "Exponential variate samples"
vector 12 LoRaNetworkTest.loRaNodes[6].app[0] emergencyVariate:vector ETV
attr recordingmode vector
attr title "Exponential variate samples"
vector 13 LoRaNetworkTest.loRaNodes[45].app[0] emergencyVariate:vector ETV
attr recordingmode vector
attr title "Exponential variate samples"
vector 14 LoRaNetworkTest.loRaNodes[53].app[0] emergencyVariate:vector ETV
attr recordingmode vector
attr title "Exponential variate samples"
vector 15 LoRaNetworkTest.loRaNodes[67].app[0] emergencyVariate:vector ETV
attr recordingmode vector
attr title "Exponential variate samples"
vector 16 LoRaNetworkTest.loRaNodes[48].app[0] emergencyVariate:vector ETV
attr recordingmode vector
attr title "Exponential variate samples"
vector 17 LoRaNetworkTest.loRaNodes[43].app[0] emergencyVariate:vector ETV
attr recordingmode vector
attr title "Exponential variate samples"
vector 18 LoRaNetworkTest.loRaNodes[68].app[0] emergencyVariate:vector ETV
attr recordingmode vector
attr title "Exponential variate samples"
vector 19 LoRaNetworkTest.loRaNodes[70].app[0] emergencyVariate:vector ETV
attr recordingmode vector
attr title "Exponential variate samples"
vector 20 LoRaNetworkTest.loRaNodes[66].app[0] emergencyVariate:vector ETV
attr recordingmode vector
attr title "Exponential variate samples"
vector 21 LoRaNetworkTest.loRaNodes[29].app[0] emergencyVariate:vector ETV
attr recordingmode vector
attr title "Exponential variate samples"
vector 22 LoRaNetworkTest.loRaNodes[12].app[0] emergencyVariate:vector ETV
attr recordingmode vector
attr title "Exponential variate samples"
vector 23 LoRaNetworkTest.loRaNodes[61].app[0] emergencyVariate:vector ETV
attr recordingmode vector
attr title "Exponential variate samples"
vector 24 LoRaNetworkTest.loRaNodes[46].app[0] emergencyVariate:vector ETV
attr recordingmode vector
attr title "Exponential variate samples"
vector 25 LoRaNetworkTest.loRaNodes[20].app[0] emergencyVariate:vector ETV
attr recordingmode vector
attr title "Exponential variate samples"
vector 26 LoRaNetworkTest.loRaNodes[25].app[0] emergencyVariate:vector ETV
attr recordingmode vector
attr title "Exponential variate samples"
vector 27 LoRaNetworkTest.loRaNodes[15].app[0] emergencyVariate:vector ETV
attr recordingmode vector
attr title "Exponential variate samples"
vector 28 LoRaNetworkTest.loRaNodes[5].app[0] emergencyVariate:vector ETV
attr recordingmode vector
attr title "Exponential variate samples"
vector 29 LoRaNetworkTest.loRaNodes[49].app[0] emergencyVariate:vector ETV
attr recordingmode vector
attr title "Exponential variate samples"
vector 30 LoRaNetworkTest.loRaNodes[1].app[0] emergencyVariate:vector ETV
attr recordingmode vector
attr title "Exponential variate samples"
vector 31 LoRaNetworkTest.loRaNodes[50].app[0] emergencyVariate:vector ETV
attr recordingmode vector
attr title "Exponential variate samples"
vector 32 LoRaNetworkTest.loRaNodes[65].app[0] emergencyVariate:vector ETV
attr recordingmode vector
attr title "Exponential variate samples"
vector 33 LoRaNetworkTest.loRaNodes[69].app[0] emergencyVariate:vector ETV
attr recordingmode vector
attr title "Exponential variate samples"
vector 34 LoRaNetworkTest.loRaNodes[35].app[0] emergencyVariate:vector ETV
attr recordingmode vector
attr title "Exponential variate samples"
vector 35 LoRaNetworkTest.loRaNodes[21].app[0] emergencyVariate:vector ETV
attr recordingmode vector
attr title "Exponential variate samples"
vector 36 LoRaNetworkTest.loRaNodes[55].app[0] emergencyVariate:vector ETV
attr recordingmode vector
attr title "Exponential variate samples"
vector 37 LoRaNetworkTest.loRaNodes[51].app[0] emergencyVariate:vector ETV
attr recordingmode vector
attr title "Exponential variate samples"
vector 38 LoRaNetworkTest.loRaNodes[26].app[0] emergencyVariate:vector ETV
attr recordingmode vector
attr title "Exponential variate samples"
vector 39 LoRaNetworkTest.loRaNodes[7].app[0] emergencyVariate:vector ETV
attr recordingmode vector
attr title "Exponential variate samples"
vector 40 LoRaNetworkTest.loRaNodes[64].app[0] emergencyVariate:vector ETV
attr recordingmode vector
attr title "Exponential variate samples"
vector 41 LoRaNetworkTest.loRaNodes[10].app[0] emergencyVariate:vector ETV
attr recordingmode vector
attr title "Exponential variate samples"
vector 42 LoRaNetworkTest.loRaNodes[8].app[0] emergencyVariate:vector ETV
attr recordingmode vector
attr title "Exponential variate samples"
vector 43 LoRaNetworkTest.loRaNodes[14].app[0] emergencyVariate:vector ETV
attr recordingmode vector
attr title "Exponential variate samples"
vector 44 LoRaNetworkTest.loRaNodes[60].app[0] emergencyVariate:vector ETV
attr recordingmode vector
attr title "Exponential variate samples"
vector 45 LoRaNetworkTest.loRaNodes[32].app[0] emergencyVariate:vector ETV
attr recordingmode vector
attr title "Exponential variate samples"
vector 46 LoRaNetworkTest.loRaNodes[39].app[0] emergencyVariate:vector ETV
attr recordingmode vector
attr title "Exponential variate samples"
vector 47 LoRaNetworkTest.loRaNodes[31].app[0] emergencyVariate:vector ETV
attr recordingmode vector
attr title "Exponential variate samples"
vector 48 LoRaNetworkTest.loRaNodes[42].app[0] emergencyVariate:vector ETV
attr recordingmode vector
attr title "Exponential variate samples"
vector 49 LoRaNetworkTest.loRaNodes[38].app[0] emergencyVariate:vector ETV
attr recordingmode vector
attr title "Exponential variate samples"
vector 50 LoRaNetworkTest.loRaNodes[41].app[0] emergencyVariate:vector ETV
attr recordingmode vector
attr title "Exponential variate samples"
vector 51 LoRaNetworkTest.loRaNodes[17].app[0] emergencyVariate:vector ETV
attr recordingmode vector
attr title "Exponential variate samples"
vector 52 LoRaNetworkTest.loRaNodes[72].app[0] emergencyVariate:vector ETV
attr recordingmode vector
attr title "Exponential variate samples"
vector 53 LoRaNetworkTest.loRaNodes[34].app[0] emergencyVariate:vector ETV
attr recordingmode vector
attr title "Exponential variate samples"
vector 54 LoRaNetworkTest.loRaNodes[23].app[0] emergencyVariate:vector ETV
attr recordingmode vector
attr title "Exponential variate samples"
vector 55 LoRaNetworkTest.loRaNodes[63].app[0] emergencyVariate:vector ETV
attr recordingmode vector
attr title "Exponential variate samples"
vector 56 LoRaNetworkTest.loRaNodes[54].app[0] emergencyVariate:vector ETV
attr recordingmode vector
attr title "Exponential variate samples"
vector 57 LoRaNetworkTest.loRaNodes[73].app[0] emergencyVariate:vector ETV
attr recordingmode vector
attr title "Exponential variate samples"
vector 58 LoRaNetworkTest.loRaNodes[0].app[0] emergencyVariate:vector ETV
attr recordingmode vector
attr title "Exponential variate samples"
vector 59 LoRaNetworkTest.loRaNodes[74].app[0] emergencyVariate:vector ETV
attr recordingmode vector
attr title "Exponential variate samples"
vector 60 LoRaNetworkTest.loRaNodes[16].app[0] emergencyVariate:vector ETV
attr recordingmode vector
attr title "Exponential variate samples"
vector 61 LoRaNetworkTest.loRaNodes[52].app[0] emergencyVariate:vector ETV
attr recordingmode vector
attr title "Exponential variate samples"
vector 62 LoRaNetworkTest.loRaNodes[56].app[0] emergencyVariate:vector ETV
attr recordingmode vector
attr title "Exponential variate samples"
vector 63 LoRaNetworkTest.loRaNodes[71].app[0] emergencyVariate:vector ETV
attr recordingmode vector
attr title "Exponential variate samples"
vector 64 LoRaNetworkTest.loRaNodes[13].app[0] emergencyVariate:vector ETV
attr recordingmode vector
attr title "Exponential variate samples"
vector 65 LoRaNetworkTest.loRaNodes[4].app[0] emergencyVariate:vector ETV
attr recordingmode vector
attr title "Exponential variate samples"
vector 66 LoRaNetworkTest.loRaNodes[40].app[0] emergencyVariate:vector ETV
attr recordingmode vector
attr title "Exponential variate samples"
vector 67 LoRaNetworkTest.HospitalServer.app[0] urgentWaitTime:vector ETV
attr recordingmode vector
attr title "Urgent wait time (s)"
vector 68 LoRaNetworkTest.HospitalServer.app[0] urgentEndToEndDelay:vector ETV
attr recordingmode vector
attr title "Urgent end-to-end delay (s)"
vector 69 LoRaNetworkTest.loRaNodes[28].app[0] emergencyVariate:vector ETV
attr recordingmode vector
attr title "Exponential variate samples"
vector 70 LoRaNetworkTest.loRaNodes[59].app[0] emergencyVariate:vector ETV
attr recordingmode vector
attr title "Exponential variate samples"
vector 71 LoRaNetworkTest.loRaNodes[19].app[0] emergencyVariate:vector ETV
attr recordingmode vector
attr title "Exponential variate samples"
vector 72 LoRaNetworkTest.loRaNodes[62].app[0] emergencyVariate:vector ETV
attr recordingmode vector
attr title "Exponential variate samples"
vector 73 LoRaNetworkTest.loRaNodes[11].app[0] emergencyVariate:vector ETV
attr recordingmode vector
attr title "Exponential variate samples"
vector 74 LoRaNetworkTest.loRaNodes[47].app[0] emergencyVariate:vector ETV
attr recordingmode vector
attr title "Exponential variate samples"
vector 75 LoRaNetworkTest.loRaNodes[30].app[0] emergencyVariate:vector ETV
attr recordingmode vector
attr title "Exponential variate samples"
vector 76 LoRaNetworkTest.loRaNodes[57].app[0] emergencyVariate:vector ETV
attr recordingmode vector
attr title "Exponential variate samples"
vector 77 LoRaNetworkTest.loRaNodes[37].app[0] emergencyVariate:vector ETV
attr recordingmode vector
attr title "Exponential variate samples"
vector 78 LoRaNetworkTest.loRaNodes[58].app[0] emergencyVariate:vector ETV
attr recordingmode vector
attr title "Exponential variate samples"
vector 79 LoRaNetworkTest.loRaNodes[24].app[0] emergencyVariate:vector ETV
attr recordingmode vector
attr title "Exponential variate samples"
0	10457	61.00427251192	1
0	10457	61.00427251192	0
0	10763	68.79258010986	1
0	10763	68.79258010986	0
0	11107	72.63290271577	1
0	11107	72.63290271577	0
0	11616	77.27080427302	1
0	11616	77.27080427302	0
0	12333	180.86538942176	1
0	12333	180.86538942176	0
0	12502	186.98520466704	1
0	12502	186.98520466704	0
0	13997	196.6864452752	1
0	13997	196.6864452752	0
0	15222	204.03964007407	1
0	15222	204.03964007407	0
0	16035	209.22463359991	1
0	16035	209.22463359991	0
0	17726	215.95814038726	1
0	17726	215.95814038726	0
0	18984	222.23893786184	1
0	18984	222.23893786184	0
0	19324	224.21082138443	1
0	19324	224.21082138443	0
0	19510	226.44462464623	1
0	19510	226.44462464623	0
0	19740	228.29663610925	1
0	20020	230.14273366842	0
0	20645	232.95687205702	1
0	20645	232.95687205702	0
0	20985	236.47509762893	1
0	20985	236.47509762893	0
0	21823	249.23292478146	1
0	21823	249.23292478146	0
0	22144	259.85898918416	1
0	22144	259.85898918416	0
0	22322	262.40088463964	1
0	22322	262.40088463964	0
0	22743	266.31473989466	1
0	22743	266.31473989466	0
0	23009	269.60044250403	1
0	23009	269.60044250403	0
0	23368	273.9126686523	1
0	23368	273.9126686523	0
0	23648	279.17306708951	1
0	23648	279.17306708951	0
0	24100	324.32777724798	1
0	24100	324.32777724798	0
0	24754	363.74166362314	1
0	24754	363.74166362314	0
0	25704	373.49715034331	1
0	25704	373.49715034331	0
0	26265	381.30550664496	1
0	26265	381.30550664496	0
0	27638	391.46061458496	1
0	27638	391.46061458496	0
0	27997	395.78130288171	1
0	27997	395.78130288171	0
0	30478	412.55494534158	1
0	30478	412.55494534158	0
0	30829	414.70553095812	1
0	30829	414.70553095812	0
0	31195	418.47586499818	1
0	31195	418.47586499818	0
0	32066	429.96008560599	1
0	32066	429.96008560599	0
0	32828	434.46083962594	1
0	32828	434.46083962594	0
0	33296	440.10450715369	1
0	33296	440.10450715369	0
0	33721	443.41624674404	1
0	33721	443.41624674404	0
0	34436	445.39029205401	1
0	34436	445.39029205401	0
0	34897	447.81156137898	1
0	34897	447.81156137898	0
0	35098	455.26109915081	1
0	35098	455.26109915081	0
0	35607	463.30546055952	1
0	35607	463.30546055952	0
0	35969	470.25763656764	1
0	35969	470.25763656764	0
0	36273	494.53438528108	1
0	36273	494.53438528108	0
0	36492	499.76374269513	1
0	36492	499.76374269513	0
0	36831	544.50062833736	1
0	36831	544.50062833736	0
0	37168	548.17918878048	1
0	37168	548.17918878048	0
0	38246	568.54812952428	1
0	38246	568.54812952428	0
0	38895	575.48445074476	1
0	38895	575.48445074476	0
0	39362	577.60680340219	1
0	39362	577.60680340219	0
0	39864	579.67026442869	1
0	39864	579.67026442869	0
0	40700	584.26153602463	1
0	40700	584.26153602463	0
0	41195	586.14384771195	1
0	41195	586.14384771195	0
0	41888	591.28764763727	1
0	41888	591.28764763727	0
0	42317	596.15544447134	1
0	42317	596.15544447134	0
0	42486	601.20259905448	1
0	42486	601.20259905448	0
0	43446	609.14930385885	1
0	43446	609.14930385885	0
0	44428	622.50896707853	1
0	44428	622.50896707853	0
0	45402	634.6745121715	1
0	45402	634.6745121715	0
0	45819	637.04962678027	1
0	45819	637.04962678027	0
0	46514	642.73528334033	1
0	46514	642.73528334033	0
0	47066	645.75083138646	1
0	47066	645.75083138646	0
0	47285	656.96646081233	1
0	47285	656.96646081233	0
0	47526	660.40410459988	1
0	47526	660.40410459988	0
0	47797	662.27630603621	1
0	47797	662.27630603621	0
0	48345	677.6799015722	1
0	48345	677.6799015722	0
0	48648	686.26569848199	1
0	48648	686.26569848199	0
0	48857	700.16345692064	1
0	48857	700.16345692064	0
0	49034	706.88764651958	1
0	49034	706.88764651958	0
0	49219	715.5088561197	1
0	49219	715.5088561197	0
0	49524	738.1659676531	1
0	49524	738.1659676531	0
0	49706	741.43322575584	1
0	49706	741.43322575584	0
0	50038	745.06395532832	1
0	50038	745.06395532832	0
0	50565	750.81471746947	1
0	50565	750.81471746947	0
0	50714	752.698825997	1
0	50714	752.698825997	0
0	51291	758.73177692142	1
0	51291	758.73177692142	0
0	52385	766.80534060836	1
0	52385	766.80534060836	0
0	52543	770.70595631669	1
0	52543	770.70595631669	0
0	52804	774.7294062645	1
0	52804	774.7294062645	0
0	53812	785.29167847567	1
0	53812	785.29167847567	0
0	54826	794.47263750762	1
0	54826	794.47263750762	0
0	55206	797.17882192627	1
0	55206	797.17882192627	0
0	55853	802.62217886357	1
0	55853	802.62217886357	0
0	56255	804.80310636969	1
0	56255	804.80310636969	0
0	56554	808.10826278309	1
0	56554	808.10826278309	0
0	56863	813.66955649686	1
0	56863	813.66955649686	0
0	57239	817.9047550762	1
0	57239	817.9047550762	0
0	57608	823.00115285757	1
0	57608	823.00115285757	0
0	57909	825.73484109601	1
0	57909	825.73484109601	0
0	58446	831.27657472479	1
0	58446	831.27657472479	0
0	58693	836.95434600069	1
0	58693	836.95434600069	0
0	59253	841.71659398624	1
0	59253	841.71659398624	0
0	59432	844.65409826308	1
0	59432	844.65409826308	0
0	59961	860.71747988754	1
0	59961	860.71747988754	0
0	60435	879.10881979516	1
0	60435	879.10881979516	0
0	61362	903.59511321633	1
0	61362	903.59511321633	0
0	61595	910.29361987664	1
0	61595	910.29361987664	0
0	61780	914.05869115585	1
0	61780	914.05869115585	0
0	62116	923.54095640497	1
0	62116	923.54095640497	0
0	62312	931.87714570498	1
0	62312	931.87714570498	0
0	62943	939.90949977828	1
0	62943	939.90949977828	0
0	63593	946.02527485257	1
0	63593	946.02527485257	0
0	64136	959.01793067516	1
0	64136	959.01793067516	0
0	64547	961.18590171148	1
0	64547	961.18590171148	0
0	65171	971.36091240121	1
0	65171	971.36091240121	0
0	65557	973.44576407496	1
0	65557	973.44576407496	0
0	65835	975.95156837569	1
0	65835	975.95156837569	0
0	65997	979.84339938245	1
0	65997	979.84339938245	0
0	66213	982.29368175659	1
0	66213	982.29368175659	0
0	66764	986.86098621899	1
0	66764	986.86098621899	0
0	68163	998.55190958153	1
0	68163	998.55190958153	0
0	68548	1001.74980630082	1
0	68754	1003.38483956711	0
0	69232	1010.67532243667	1
0	69232	1010.67532243667	0
0	69497	1014.00003446686	1
0	69497	1014.00003446686	0
0	69979	1017.23136490368	1
0	69979	1017.23136490368	0
0	70271	1020.00710328562	1
0	70275	1020.06687454689	0
0	70578	1023.385181621	1
0	70578	1023.385181621	0
0	71001	1027.54484470537	1
0	71001	1027.54484470537	0
0	71223	1030.62287853696	1
0	71223	1030.62287853696	0
0	72167	1062.41418001439	1
0	72167	1062.41418001439	0
0	72892	1074.69608989529	1
0	72892	1074.69608989529	0
0	73041	1085.51624216102	1
0	73041	1085.51624216102	0
0	73236	1088.99921216056	1
0	73236	1088.99921216056	0
0	73557	1098.53471005111	1
0	73557	1098.53471005111	0
0	73733	1101.35373317983	1
0	73733	1101.35373317983	0
0	74432	1112.38905111571	1
0	74432	1112.38905111571	0
0	74890	1116.41590478172	1
0	74890	1116.41590478172	0
0	75413	1122.76963025261	1
0	75413	1122.76963025261	0
0	75777	1128.89636397265	1
0	75777	1128.89636397265	0
0	76232	1133.5472137343	1
0	76232	1133.5472137343	0
0	76614	1140.67329408386	1
0	76614	1140.67329408386	0
0	76917	1143.79372940255	1
0	76917	1143.79372940255	0
0	77252	1146.22011740822	1
0	77252	1146.22011740822	0
0	78438	1161.83887158329	1
0	78438	1161.83887158329	0
0	78988	1169.64779376104	1
0	78988	1169.64779376104	0
0	79313	1174.28833559104	1
0	79313	1174.28833559104	0
0	79726	1176.76577864573	1
0	79726	1176.76577864573	0
0	79935	1180.95280781982	1
0	79935	1180.95280781982	0
0	80272	1183.95490232995	1
0	80272	1183.95490232995	0
0	80790	1190.79066492069	1
0	80790	1190.79066492069	0
0	81014	1197.08774543868	1
0	81014	1197.08774543868	0
0	81354	1205.14770255197	1
0	81354	1205.14770255197	0
0	81891	1209.23221471054	1
0	81891	1209.23221471054	0
0	82447	1210.96117585709	1
0	82447	1210.96117585709	0
0	82823	1219.25782020849	1
0	82823	1219.25782020849	0
0	83190	1227.18374254606	1
0	83190	1227.18374254606	0
0	83610	1241.74136719104	1
0	83610	1241.74136719104	0
0	84618	1250.13891458716	1
0	84618	1250.13891458716	0
0	85309	1263.31117322903	1
0	85309	1263.31117322903	0
0	85476	1266.49938127247	1
0	85476	1266.49938127247	0
0	85658	1273.87975498535	1
0	85658	1273.87975498535	0
0	86182	1283.24461588415	1
0	86182	1283.24461588415	0
0	86369	1285.94313730752	1
0	86369	1285.94313730752	0
0	86749	1292.78114717695	1
0	86749	1292.78114717695	0
0	87822	1315.55668176736	1
0	87822	1315.55668176736	0
0	88056	1318.74733973028	1
0	88056	1318.74733973028	0
0	88527	1323.15703693577	1
0	88527	1323.15703693577	0
0	88932	1331.11225333479	1
0	88932	1331.11225333479	0
0	89439	1334.12471132569	1
0	89439	1334.12471132569	0
0	90056	1347.0427595641	1
0	90056	1347.0427595641	0
0	90310	1350.34843967855	1
0	90310	1350.34843967855	0
0	90645	1353.85866751006	1
0	90645	1353.85866751006	0
0	91197	1366.30696368817	1
0	91197	1366.30696368817	0
0	92591	1382.3546206285	1
0	92591	1382.3546206285	0
0	92836	1384.86957314831	1
0	92836	1384.86957314831	0
0	93049	1386.92605886947	1
0	93049	1386.92605886947	0
0	93271	1391.33366806303	1
0	93271	1391.33366806303	0
0	93541	1394.41550646228	1
0	93541	1394.41550646228	0
0	93892	1398.78892635475	1
0	93892	1398.78892635475	0
0	94099	1403.24730260745	1
0	94099	1403.24730260745	0
0	94424	1407.71830643936	1
0	94517	1407.96660691375	0
0	94576	1409.46438377389	1
0	94576	1409.46438377389	0
0	95410	1422.03370480767	1
0	95410	1422.03370480767	0
0	95662	1428.74506552454	1
0	95662	1428.74506552454	0
0	96007	1434.19249687651	1
0	96007	1434.19249687651	0
0	96640	1445.59512642291	1
0	96640	1445.59512642291	0
0	96984	1452.60216870076	1
0	96984	1452.60216870076	0
0	97367	1455.66487754335	1
0	97367	1455.66487754335	0
0	97779	1459.58631788148	1
0	97779	1459.58631788148	0
0	98160	1462.29381441987	1
0	98160	1462.29381441987	0
0	98322	1473.27518473347	1
0	98322	1473.27518473347	0
0	98808	1479.65814748007	1
0	98808	1479.65814748007	0
0	99226	1495.66357344399	1
0	99226	1495.66357344399	0
0	99490	1499.02188574736	1
0	99490	1499.02188574736	0
0	99947	1506.36972757208	1
0	99947	1506.36972757208	0
0	100279	1509.26625860364	1
0	100279	1509.26625860364	0
0	100654	1511.66771033422	1
0	100654	1511.66771033422	0
0	100868	1519.46069684161	1
0	100868	1519.46069684161	0
0	101031	1522.08749507393	1
0	101031	1522.08749507393	0
0	101385	1525.83350901421	1
0	101385	1525.83350901421	0
0	101752	1531.6570139372	1
0	101755	1532.52442798283	0
0	101998	1536.74896993772	1
0	101998	1536.74896993772	0
0	102701	1543.59585287338	1
0	102701	1543.59585287338	0
0	103055	1548.72980345463	1
0	103055	1548.72980345463	0
0	103623	1554.78467144192	1
0	103623	1554.78467144192	0
0	103921	1557.64921606575	1
0	103921	1557.64921606575	0
0	104088	1559.78065011239	1
0	104368	1561.97609161428	2
0	104450	1562.52451926025	1
0	104529	1562.69785765466	0
0	104786	1564.57570081934	1
0	104786	1564.57570081934	0
0	105079	1567.03994271726	1
0	105079	1567.03994271726	0
0	105311	1570.91376408246	1
0	105311	1570.91376408246	0
0	106188	1584.87145383978	1
0	106188	1584.87145383978	0
0	107427	1607.44461515646	1
0	107427	1607.44461515646	0
0	107764	1609.40634397376	1
0	107764	1609.40634397376	0
0	108196	1620.13207881153	1
0	108196	1620.13207881153	0
0	108637	1627.34983322146	1
0	108637	1627.34983322146	0
0	108973	1630.18278146968	1
0	108973	1630.18278146968	0
0	109604	1636.80300152438	1
0	109604	1636.80300152438	0
0	109786	1646.93427173279	1
0	109786	1646.93427173279	0
0	110004	1652.18766517664	1
0	110004	1652.18766517664	0
0	110309	1670.64261652555	1
0	110309	1670.64261652555	0
0	110522	1673.46894433862	1
0	110522	1673.46894433862	0
0	110899	1678.28352307573	1
0	110899	1678.28352307573	0
0	111241	1682.9411126785	1
0	111241	1682.9411126785	0
0	111895	1692.00053992383	1
0	111895	1692.00053992383	0
0	112223	1697.20993449917	1
0	112223	1697.20993449917	0
0	112846	1703.44244586542	1
0	112846	1703.44244586542	0
0	113206	1706.45263196967	1
0	113206	1706.45263196967	0
0	113555	1708.43337735537	1
0	113555	1708.43337735537	0
0	114272	1715.77170727508	1
0	114272	1715.77170727508	0
0	114854	1721.97889033703	1
0	114854	1721.97889033703	0
0	115123	1729.52997902235	1
0	115123	1729.52997902235	0
0	115371	1731.72502291729	1
0	115418	1732.71195817849	0
0	115757	1736.11319413442	1
0	115757	1736.11319413442	0
0	116263	1744.53365260958	1
0	116263	1744.53365260958	0
0	116585	1749.40228174762	1
0	116585	1749.40228174762	0
0	116743	1756.7843599625	1
0	116743	1756.7843599625	0
0	117164	1759.47920973014	1
0	117164	1759.47920973014	0
0	117588	1761.35656462955	1
0	117588	1761.35656462955	0
0	118085	1775.5739459586	1
0	118085	1775.5739459586	0
0	119065	1786.72911309428	1
0	119065	1786.72911309428	0
0	119592	1794.06044974742	1
0	119592	1794.06044974742	0
0	120066	1801.21166851033	1
0	120066	1801.21166851033	0
0	120492	1805.31016651693	1
0	120492	1805.31016651693	0
0	120769	1807.67857081292	1
0	120769	1807.67857081292	0
0	121462	1815.50728020803	1
0	121462	1815.50728020803	0
0	121613	1829.08438640628	1
0	121613	1829.08438640628	0
0	121911	1835.48204329769	1
0	121911	1835.48204329769	0
0	122297	1845.09973541778	1
0	122297	1845.09973541778	0
0	123104	1863.5825881887	1
0	123104	1863.5825881887	0
0	123331	1868.60577255228	1
0	123331	1868.60577255228	0
0	123644	1874.48816945519	1
0	123644	1874.48816945519	0
0	124546	1884.24038986567	1
0	124546	1884.24038986567	0
0	124943	1887.5425080918	1
0	124943	1887.5425080918	0
0	125282	1890.38838879166	1
0	125282	1890.38838879166	0
0	125506	1892.39559130355	1
0	125506	1892.39559130355	0
0	125809	1895.43884454377	1
0	125809	1895.43884454377	0
0	126112	1900.18757335135	1
0	126112	1900.18757335135	0
0	126656	1907.13649426829	1
0	126656	1907.13649426829	0
0	127502	1918.05592339849	1
0	127502	1918.05592339849	0
0	127885	1928.9790325699	1
0	127885	1928.9790325699	0
0	128309	1934.11210796667	1
0	128309	1934.11210796667	0
0	128877	1939.15096429889	1
0	128877	1939.15096429889	0
0	129138	1941.24386496267	1
0	129138	1941.24386496267	0
0	129373	1943.8531583042	1
0	129373	1943.8531583042	0
0	129567	1948.57105704727	1
0	129567	1948.57105704727	0
0	129884	1952.33655162073	1
0	129884	1952.33655162073	0
0	130627	1959.38767493888	1
0	130627	1959.38767493888	0
0	131289	1976.32144342303	1
0	131289	1976.32144342303	0
0	131706	1978.21919296033	1
0	131706	1978.21919296033	0
0	132478	1985.51223282417	1
0	132478	1985.51223282417	0
0	132901	1990.63963901753	1
0	132901	1990.63963901753	0
0	133084	2001.8340325819	1
0	133084	2001.8340325819	0
0	133311	2006.12198522443	1
0	133311	2006.12198522443	0
0	134610	2023.89159392115	1
0	134610	2023.89159392115	0
0	135066	2032.65140765362	1
0	135066	2032.65140765362	0
0	135249	2043.33805495297	1
0	135249	2043.33805495297	0
0	135386	2045.37769282898	1
0	135386	2045.37769282898	0
0	135583	2050.90470345171	1
0	135583	2050.90470345171	0
0	135903	2057.69400589788	1
0	135903	2057.69400589788	0
0	136156	2060.31081680394	1
0	136156	2060.31081680394	0
0	136778	2069.47455854622	1
0	136778	2069.47455854622	0
0	137777	2077.95585995528	1
0	137777	2077.95585995528	0
0	138113	2083.85364066943	1
0	138113	2083.85364066943	0
0	138636	2089.69674999162	1
0	138636	2089.69674999162	0
0	138814	2091.96957981767	1
0	138814	2091.96957981767	0
0	139582	2101.15279025138	1
0	139582	2101.15279025138	0
0	139865	2107.96236122001	1
0	139865	2107.96236122001	0
0	140365	2116.76578649002	1
0	140365	2116.76578649002	0
0	140773	2122.35760671449	1
0	140773	2122.35760671449	0
0	140998	2126.7639172426	1
0	140998	2126.7639172426	0
0	141139	2128.78634543399	1
0	141139	2128.78634543399	0
0	141361	2137.00429568355	1
0	141361	2137.00429568355	0
0	141909	2150.3055040707	1
0	141909	2150.3055040707	0
0	142586	2159.74520630964	1
0	142586	2159.74520630964	0
0	143158	2169.84489189547	1
0	143158	2169.84489189547	0
0	144805	2197.37078095035	1
0	144805	2197.37078095035	0
0	145184	2199.25540219956	1
0	145294	2199.33953459172	0
0	145966	2206.21998651244	1
0	145966	2206.21998651244	0
0	146434	2217.9706174188	1
0	146434	2217.9706174188	0
0	146819	2228.44805885538	1
0	146819	2228.44805885538	0
0	147110	2232.21547284706	1
0	147110	2232.21547284706	0
0	147777	2237.59543199456	1
0	147777	2237.59543199456	0
0	148431	2256.54030237063	1
0	148431	2256.54030237063	0
0	148630	2258.55220011361	1
0	148630	2258.55220011361	0
0	149224	2261.79801902054	1
0	149224	2261.79801902054	0
0	149642	2268.02768258839	1
0	149642	2268.02768258839	0
0	149954	2270.54101052812	1
0	149954	2270.54101052812	0
0	150332	2273.53824190597	1
0	150332	2273.53824190597	0
0	150877	2281.47182211726	1
0	150877	2281.47182211726	0
0	151237	2283.44255747969	1
0	151237	2283.44255747969	0
0	151649	2289.39926251404	1
0	151649	2289.39926251404	0
0	153485	2324.11729990663	1
0	153485	2324.11729990663	0
0	154048	2335.00294178148	1
0	154048	2335.00294178148	0
0	154377	2340.40310314261	1
0	154377	2340.40310314261	0
0	154629	2347.29784629101	1
0	154629	2347.29784629101	0
0	154965	2354.15420205558	1
0	154965	2354.15420205558	0
0	155325	2358.82304928453	1
0	155325	2358.82304928453	0
0	156451	2369.99952283424	1
0	156451	2369.99952283424	0
0	156643	2378.88782163934	1
0	156643	2378.88782163934	0
0	156969	2382.59751733341	1
0	156969	2382.59751733341	0
0	157501	2388.91441514313	1
0	157501	2388.91441514313	0
0	157733	2393.52117303598	1
0	157733	2393.52117303598	0
0	157991	2400.66998774913	1
0	157991	2400.66998774913	0
0	158475	2403.50436868135	1
0	158475	2403.50436868135	0
0	159000	2414.31075813477	1
0	159000	2414.31075813477	0
0	159205	2419.11806484546	1
0	159205	2419.11806484546	0
0	160134	2430.36157916579	1
0	160134	2430.36157916579	0
0	160353	2438.0257624288	1
0	160353	2438.0257624288	0
0	160606	2441.60752520781	1
0	160606	2441.60752520781	0
0	160917	2443.43898377619	1
0	160959	2443.67576189525	0
0	161487	2447.41614430404	1
0	161487	2447.41614430404	0
0	161873	2452.81099758609	1
0	161873	2452.81099758609	0
0	162528	2464.39213085816	1
0	162528	2464.39213085816	0
0	162956	2467.16346974534	1
0	162956	2467.16346974534	0
0	163464	2474.7171851202	1
0	163464	2474.7171851202	0
0	163868	2476.65593190594	1
0	163868	2476.65593190594	0
0	164411	2482.00930101987	1
0	164411	2482.00930101987	0
0	164673	2484.03644610936	1
0	164673	2484.03644610936	0
0	165054	2490.80134335387	1
0	165054	2490.80134335387	0
0	165419	2494.51553901673	1
0	165419	2494.51553901673	0
0	165580	2509.47832988587	1
0	165580	2509.47832988587	0
0	165761	2512.75078222172	1
0	165761	2512.75078222172	0
0	166196	2516.99201829498	1
0	166196	2516.99201829498	0
0	166706	2520.3546939237	1
0	166706	2520.3546939237	0
0	167434	2536.55023060902	1
0	167434	2536.55023060902	0
0	168573	2551.08447215012	1
0	168573	2551.08447215012	0
0	169062	2555.85202297901	1
0	169062	2555.85202297901	0
0	169628	2573.19348542367	1
0	169628	2573.19348542367	0
0	169936	2585.39679882503	1
0	169936	2585.39679882503	0
0	170539	2595.56610806725	1
0	170539	2595.56610806725	0
0	170772	2597.50945467707	1
0	170772	2597.50945467707	0
0	170951	2600.75599479637	1
0	170951	2600.75599479637	0
0	171138	2605.61701426301	1
0	171138	2605.61701426301	0
0	171466	2609.66461854551	1
0	171466	2609.66461854551	0
0	171754	2612.08478321251	1
0	171768	2612.45983537292	0
0	172402	2617.93617843941	1
0	172501	2618.8449091969	0
0	172839	2621.85334606874	1
0	172839	2621.85334606874	0
0	173268	2632.11217900381	1
0	173268	2632.11217900381	0
0	173524	2634.62633721753	1
0	173524	2634.62633721753	0
0	173828	2641.06704006652	1
0	173828	2641.06704006652	0
0	174123	2642.88415815633	1
0	174203	2643.76377270402	0
0	174667	2652.3946484493	1
0	174667	2652.3946484493	0
0	175041	2659.52540535753	1
0	175041	2659.52540535753	0
0	175514	2664.34700720804	1
0	175514	2664.34700720804	0
0	176410	2675.41161860252	1
0	176410	2675.41161860252	0
0	176742	2679.90178505408	1
0	176742	2679.90178505408	0
0	177095	2686.77765935185	1
0	177095	2686.77765935185	0
0	178130	2697.13071968426	1
0	178130	2697.13071968426	0
0	178426	2700.77208934888	1
0	178426	2700.77208934888	0
0	178557	2702.44504108091	1
0	178557	2702.44504108091	0
0	179194	2708.64883830859	1
0	179194	2708.64883830859	0
0	179473	2715.07029862489	1
0	179473	2715.07029862489	0
0	179719	2720.9017334224	1
0	179719	2720.9017334224	0
0	180439	2729.60530122601	1
0	180439	2729.60530122601	0
0	180756	2734.59518380132	1
0	180756	2734.59518380132	0
0	181230	2741.41194193826	1
0	181230	2741.41194193826	0
0	181802	2750.85994065095	1
0	181802	2750.85994065095	0
0	182302	2765.10676996287	1
0	182302	2765.10676996287	0
0	182594	2773.8880860486	1
0	182594	2773.8880860486	0
0	182820	2777.85263569342	1
0	182820	2777.85263569342	0
0	183737	2794.45655639817	1
0	183737	2794.45655639817	0
0	184050	2805.2555947167	1
0	184050	2805.2555947167	0
0	184465	2809.04609798119	1
0	184465	2809.04609798119	0
0	184747	2811.28502081182	1
0	184747	2811.28502081182	0
0	185378	2821.2416667881	1
0	185378	2821.2416667881	0
0	185915	2830.56409691464	1
0	185915	2830.56409691464	0
0	186295	2837.52257089597	1
0	186304	2837.77487804021	0
0	187279	2857.61727169326	1
0	187279	2857.61727169326	0
0	187531	2859.66155900044	1
0	187531	2859.66155900044	0
0	187603	2861.32896978052	1
0	187603	2861.32896978052	0
0	188286	2867.09584175822	1
0	188286	2867.09584175822	0
0	188748	2874.15667959852	1
0	188748	2874.15667959852	0
0	190161	2881.63782533888	1
0	190161	2881.63782533888	0
0	190568	2889.53592300392	1
0	190568	2889.53592300392	0
0	190897	2897.03723713027	1
0	190897	2897.03723713027	0
0	191555	2903.65315090173	1
0	191555	2903.65315090173	0
0	191811	2906.25554983871	1
0	191811	2906.25554983871	0
0	192645	2913.75776722826	1
0	192645	2913.75776722826	0
0	192911	2922.95971969076	1
0	192911	2922.95971969076	0
0	193737	2936.9385951373	1
0	193737	2936.9385951373	0
0	194913	2965.26331856184	1
0	194913	2965.26331856184	0
0	195089	2968.43361666491	1
0	195089	2968.43361666491	0
0	195270	2973.62976111053	1
0	195270	2973.62976111053	0
0	195732	2981.08749455281	1
0	195732	2981.08749455281	0
0	196409	2994.00148053819	1
0	196409	2994.00148053819	0
0	196997	3002.78479986016	1
0	196997	3002.78479986016	0
0	197157	3004.46585589041	1
0	197157	3004.46585589041	0
0	197417	3007.3322319738	1
0	197417	3007.3322319738	0
0	197797	3011.26571491352	1
0	197797	3011.26571491352	0
0	198018	3015.26247950106	1
0	198018	3015.26247950106	0
0	198326	3022.19248539281	1
0	198326	3022.19248539281	0
0	198503	3023.988071751	1
0	198503	3023.988071751	0
0	198647	3027.29924263223	1
0	198647	3027.29924263223	0
0	198996	3044.50793483152	1
0	198996	3044.50793483152	0
0	200612	3060.94190624207	1
0	200612	3060.94190624207	0
0	201084	3062.8069875071	1
0	201288	3064.37583374572	0
0	201847	3070.3311789399	1
0	201847	3070.3311789399	0
0	202106	3076.8252279143	1
0	202106	3076.8252279143	0
0	202554	3080.12229294966	1
0	202554	3080.12229294966	0
0	203083	3086.2998594247	1
0	203083	3086.2998594247	0
0	203476	3089.92897259896	1
0	203588	3091.90280905116	0
0	203645	3092.40893585486	1
0	203768	3092.66805036157	0
0	203847	3094.15466388823	1
0	203847	3094.15466388823	0
0	205081	3112.99111772126	1
0	205081	3112.99111772126	0
0	205382	3116.79036881312	1
0	205382	3116.79036881312	0
0	206311	3125.84871730094	1
0	206311	3125.84871730094	0
0	206555	3127.75354384868	1
0	206555	3127.75354384868	0
0	207001	3141.2935134089	1
0	207001	3141.2935134089	0
0	207180	3145.03618927761	1
0	207180	3145.03618927761	0
0	207490	3152.47599790673	1
0	207490	3152.47599790673	0
0	208156	3165.63392921625	1
0	208156	3165.63392921625	0
0	208580	3181.07052585058	1
0	208580	3181.07052585058	0
0	208835	3185.17292130749	1
0	208875	3186.14451489325	0
0	209173	3200.7402768894	1
0	209173	3200.7402768894	0
0	209446	3202.52492542901	1
0	209472	3202.84155585668	0
0	209843	3205.81975280172	1
0	209888	3206.05668009209	0
0	210185	3210.68250872214	1
0	210185	3210.68250872214	0
0	210401	3212.6398965711	1
0	210401	3212.6398965711	0
0	210765	3215.48085513847	1
0	210765	3215.48085513847	0
0	211448	3231.29257965984	1
0	211448	3231.29257965984	0
0	211600	3237.64295597238	1
0	211600	3237.64295597238	0
0	211961	3240.43017390384	1
0	211961	3240.43017390384	0
0	212625	3247.03745420316	1
0	212625	3247.03745420316	0
0	212813	3249.92860970034	1
0	212813	3249.92860970034	0
0	213190	3256.71591004157	1
0	213190	3256.71591004157	0
0	213652	3262.20278650362	1
0	213652	3262.20278650362	0
0	213874	3267.10312127251	1
0	213874	3267.10312127251	0
0	214307	3270.59929381415	1
0	214307	3270.59929381415	0
0	214590	3272.54092646072	1
0	214751	3273.42120324177	0
0	215306	3280.70827758067	1
0	215306	3280.70827758067	0
0	215759	3288.76360687597	1
0	215759	3288.76360687597	0
0	216058	3292.7941678704	1
0	216058	3292.7941678704	0
0	216501	3297.59183034231	1
0	216501	3297.59183034231	0
0	217570	3305.29244118483	1
0	217570	3305.29244118483	0
0	218468	3314.54581822802	1
0	218468	3314.54581822802	0
0	218818	3323.94707158978	1
0	218818	3323.94707158978	0
0	218956	3325.8435302458	1
0	218956	3325.8435302458	0
0	219178	3328.53677322514	1
0	219178	3328.53677322514	0
0	219855	3332.38816925396	1
0	219855	3332.38816925396	0
0	220184	3348.71563038582	1
0	220184	3348.71563038582	0
0	220361	3351.17747049283	1
0	220361	3351.17747049283	0
0	220792	3355.48405868817	1
0	220792	3355.48405868817	0
0	221037	3365.50340356971	1
0	221037	3365.50340356971	0
0	221367	3369.26963631411	1
0	221367	3369.26963631411	0
0	221703	3377.44123919067	1
0	221703	3377.44123919067	0
0	222048	3386.88077095648	1
0	222048	3386.88077095648	0
0	222463	3390.02247162677	1
0	222463	3390.02247162677	0
0	223388	3421.46226651452	1
0	223388	3421.46226651452	0
0	223634	3425.98872328018	1
0	223634	3425.98872328018	0
0	224366	3431.87231491518	1
0	224366	3431.87231491518	0
0	224883	3436.03588978944	1
0	224883	3436.03588978944	0
0	225208	3442.90016927748	1
0	225208	3442.90016927748	0
0	225774	3453.92704585526	1
0	225774	3453.92704585526	0
0	226147	3457.32076949668	1
0	226147	3457.32076949668	0
0	226526	3459.3272447609	1
0	226526	3459.3272447609	0
0	227282	3470.7572587308	1
0	227282	3470.7572587308	0
0	228378	3484.89034537715	1
0	228378	3484.89034537715	0
0	228706	3487.39072434615	1
0	228706	3487.39072434615	0
0	228974	3489.93317058422	1
0	228974	3489.93317058422	0
0	229877	3501.33173860414	1
0	229877	3501.33173860414	0
0	230461	3513.28916554964	1
0	230461	3513.28916554964	0
0	231353	3518.46252676178	1
0	231353	3518.46252676178	0
0	232583	3546.6930433719	1
0	232583	3546.6930433719	0
0	232998	3554.92526061891	1
0	232998	3554.92526061891	0
0	233337	3573.86787249657	1
0	233337	3573.86787249657	0
0	233741	3575.58535389982	1
0	233741	3575.58535389982	0
0	234377	3582.1760893163	1
0	234377	3582.1760893163	0
0	234549	3590.16322045846	1
0	234549	3590.16322045846	0
1	10457	61.00427251192	1.71213060642
1	10763	68.79258010986	1.71212965415
1	11107	72.63290271577	1.71213037316
1	11616	77.27080427302	1.71213058318
1	12333	180.86538942176	1.71213370217
1	12502	186.98520466704	1.71213063162
1	13997	196.6864452752	1.7121300116
1	15222	204.03964007407	1.71213043462
1	16035	209.22463359991	1.71212973887
1	17726	215.95814038726	1.71212971388
1	18984	222.23893786184	1.71213057625
1	19324	224.21082138443	1.71213095824
1	19510	226.44462464623	1.71213133999
1	20020	230.14273366842	3.55822825141
1	20645	232.95687205702	1.7121302775
1	21823	249.23292478146	1.71213083872
1	22144	259.85898918416	1.71212965415
1	22322	262.40088463964	1.71213006364
1	22743	266.31473989466	1.7121302169
1	23009	269.60044250403	1.71213037316
1	23368	273.9126686523	1.71213014522
1	23648	279.17306708951	1.71213076513
1	24100	324.32777724798	1.71213311042
1	24754	363.74166362314	1.71213119817
1	25704	373.49715034331	1.71213028788
1	26265	381.30550664496	1.7121300116
1	27638	391.46061458496	1.71213024908
1	27997	395.78130288171	1.71212971388
1	30478	412.55494534158	1.71213047385
1	30829	414.70553095812	1.71213124455
1	31195	418.47586499818	1.71213057625
1	32066	429.96008560599	1.71213006015
1	32828	434.46083962594	1.71213180213
1	33296	440.10450715369	1.71213006364
1	33721	443.41624674404	1.7121302169
1	34436	445.39029205401	1.7121327815
1	34897	447.81156137898	1.71213041521
1	35098	455.26109915081	1.71213037316
1	35969	470.25763656764	1.71213208073
1	36273	494.53438528108	1.71212965415
1	36492	499.76374269513	1.71213060642
1	36831	544.50062833736	1.71213107537
1	37168	548.17918878048	1.71213114722
1	38246	568.54812952428	1.71213259481
1	38895	575.48445074476	1.71213042843
1	39362	577.60680340219	1.71212973887
1	39864	579.67026442869	1.7121300116
1	40700	584.26153602463	1.71213104919
1	41195	586.14384771195	1.71212971388
1	41888	591.28764763727	1.71213072085
1	42317	596.15544447134	1.71213057625
1	42486	601.20259905448	1.71213124455
1	43446	609.14930385885	1.71213006015
1	44428	622.50896707853	1.7121302775
1	45402	634.6745121715	1.71213037316
1	46514	642.73528334033	1.71213076513
1	47066	645.75083138646	1.71213010198
1	47285	656.96646081233	1.7121320933
1	47526	660.40410459988	1.71213014522
1	47797	662.27630603621	1.71213126481
1	48345	677.6799015722	1.71212965415
1	48648	686.26569848199	1.71213108369
1	48857	700.16345692064	1.7121327209
1	49034	706.88764651958	1.71213060642
1	49219	715.5088561197	1.71213119817
1	49524	738.1659676531	1.71213070156
1	50038	745.06395532832	1.71213024908
1	50565	750.81471746947	1.71213094639
1	50714	752.698825997	1.71212973887
1	51291	758.73177692142	1.71213043462
1	52385	766.80534060836	1.71213063162
1	52543	770.70595631669	1.7121297845
1	52804	774.7294062645	1.7121300116
1	53812	785.29167847567	1.71213241336
1	54826	794.47263750762	1.71213006364
1	55206	797.17882192627	1.71213057625
1	55853	802.62217886357	1.71213028788
1	56255	804.80310636969	1.71213006015
1	56554	808.10826278309	1.7121322811
1	57239	817.9047550762	1.71213208073
1	57608	823.00115285757	1.7121327815
1	57909	825.73484109601	1.71213041521
1	58446	831.27657472479	1.71213076513
1	58693	836.95434600069	1.71213010198
1	59253	841.71659398624	1.71212971388
1	59961	860.71747988754	1.71213120801
1	60435	879.10881979516	1.71212965415
1	61362	903.59511321633	1.71213060642
1	61595	910.29361987664	1.7121302169
1	62116	923.54095640497	1.71213009081
1	62312	931.87714570498	1.71213058318
1	62943	939.90949977828	1.71213039454
1	63593	946.02527485257	1.71213293243
1	64136	959.01793067516	1.71213043462
1	64547	961.18590171148	1.7121300116
1	65171	971.36091240121	1.7121316559
1	65557	973.44576407496	1.71213088376
1	65835	975.95156837569	1.71213028788
1	65997	979.84339938245	1.71213006364
1	68163	998.55190958153	1.71213063162
1	68754	1003.38483956711	3.34716300516
1	69497	1014.00003446686	1.71213083872
1	69979	1017.23136490368	1.71212971388
1	70275	1020.06687454689	1.7719020264
1	70578	1023.385181621	1.71213069224
1	71001	1027.54484470537	1.7121297845
1	71223	1030.62287853696	1.71213095824
1	72892	1074.69608989529	1.71213215815
1	73041	1085.51624216102	1.71213070156
1	73236	1088.99921216056	1.71213014522
1	73557	1098.53471005111	1.71213009081
1	73733	1101.35373317983	1.7121302169
1	74432	1112.38905111571	1.71213108369
1	74890	1116.41590478172	1.71213024908
1	75413	1122.76963025261	1.71213042843
1	75777	1128.89636397265	1.71213133699
1	76614	1140.67329408386	1.71213114722
1	77252	1146.22011740822	1.71213043462
1	78438	1161.83887158329	1.71213159577
1	78988	1169.64779376104	1.71213124455
1	79313	1174.28833559104	1.71213006364
1	79726	1176.76577864573	1.71212973887
1	79935	1180.95280781982	1.71213006015
1	80790	1190.79066492069	1.71213094639
1	81014	1197.08774543868	1.71213384399
1	81354	1205.14770255197	1.71213216181
1	81891	1209.23221471054	1.71212971388
1	82823	1219.25782020849	1.71213104919
1	83190	1227.18374254606	1.71213076513
1	83610	1241.74136719104	1.71213241336
1	84618	1250.13891458716	1.71212965415
1	85309	1263.31117322903	1.71213014522
1	85476	1266.49938127247	1.71213070156
1	85658	1273.87975498535	1.71213009081
1	86182	1283.24461588415	1.71213126481
1	86369	1285.94313730752	1.71213108369
1	86749	1292.78114717695	1.71213041521
1	87822	1315.55668176736	1.71213042843
1	88056	1318.74733973028	1.71213311042
1	88932	1331.11225333479	1.7121300116
1	89439	1334.12471132569	1.71213088376
1	90056	1347.0427595641	1.71213180213
1	90310	1350.34843967855	1.71213057625
1	90645	1353.85866751006	1.7121309527
1	91197	1366.30696368817	1.7121302169
1	92591	1382.3546206285	1.71213120801
1	92836	1384.86957314831	1.71213006015
1	93049	1386.92605886947	1.71213107537
1	93271	1391.33366806303	1.71212973887
1	93541	1394.41550646228	1.71212971388
1	93892	1398.78892635475	1.71213010198
1	94099	1403.24730260745	1.71213076513
1	94517	1407.96660691375	1.96043110601
1	94576	1409.46438377389	1.71213069224
1	95662	1428.74506552454	1.71213037316
1	96007	1434.19249687651	1.71213047385
1	96640	1445.59512642291	1.71213264922
1	96984	1452.60216870076	1.71213119817
1	97367	1455.66487754335	1.71213070156
1	97779	1459.58631788148	1.7121297845
1	98160	1462.29381441987	1.71213126481
1	98322	1473.27518473347	1.71213140086
1	98808	1479.65814748007	1.71213009081
1	99226	1495.66357344399	1.71212965415
1	99490	1499.02188574736	1.71213041521
1	99947	1506.36972757208	1.7121316559
1	100279	1509.26625860364	1.71213060642
1	100654	1511.66771033422	1.71213039454
1	100868	1519.46069684161	1.71213042843
1	101031	1522.08749507393	1.7121300116
1	101385	1525.83350901421	1.71213058318
1	101755	1532.52442798283	2.57954560669
1	101998	1536.74896993772	1.71213028788
1	102701	1543.59585287338	1.71213043462
1	103055	1548.72980345463	1.7121302169
1	103623	1554.78467144192	1.71213006364
1	103921	1557.64921606575	1.71213072085
1	104450	1562.52451926025	4.45600003162
1	104529	1562.69785765466	2.43389661663
1	104786	1564.57570081934	1.71213107537
1	105079	1567.03994271726	1.71213256415
1	105311	1570.91376408246	1.71212971388
1	106188	1584.87145383978	1.71212973887
1	107427	1607.44461515646	1.71213047385
1	107764	1609.40634397376	1.7121302775
1	108196	1620.13207881153	1.71213083872
1	108637	1627.34983322146	1.71213161962
1	108973	1630.18278146968	1.71213095824
1	109604	1636.80300152438	1.71213070156
1	109786	1646.93427173279	1.7121297845
1	110004	1652.18766517664	1.7121322811
1	110309	1670.64261652555	1.71213009081
1	110522	1673.46894433862	1.71213108369
1	110899	1678.28352307573	1.71212965415
1	111241	1682.9411126785	1.71213039454
1	111895	1692.00053992383	1.71213291921
1	112223	1697.20993449917	1.71213063162
1	112846	1703.44244586542	1.7121300116
1	113206	1706.45263196967	1.71213042843
1	113555	1708.43337735537	1.71213014522
1	114272	1715.77170727508	1.71213024908
1	115123	1729.52997902235	1.7121302169
1	115418	1732.71195817849	2.69906532484
1	115757	1736.11319413442	1.71213057625
1	116263	1744.53365260958	1.71213114722
1	116585	1749.40228174762	1.71213120801
1	116743	1756.7843599625	1.71212973887
1	117164	1759.47920973014	1.71212971388
1	117588	1761.35656462955	1.71213010198
1	118085	1775.5739459586	1.71213069224
1	119065	1786.72911309428	1.71213104919
1	119592	1794.06044974742	1.71213133999
1	120492	1805.31016651693	1.7121302775
1	120769	1807.67857081292	1.71213072085
1	121462	1815.50728020803	1.71213376881
1	121613	1829.08438640628	1.7121297845
1	121911	1835.48204329769	1.7121320933
1	122297	1845.09973541778	1.71213009081
1	123104	1863.5825881887	1.71212965415
1	123331	1868.60577255228	1.71213108369
1	123644	1874.48816945519	1.71213058318
1	124546	1884.24038986567	1.71213014522
1	124943	1887.5425080918	1.71213041521
1	125282	1890.38838879166	1.7121300116
1	125809	1895.43884454377	1.71213024908
1	126112	1900.18757335135	1.71213060642
1	126656	1907.13649426829	1.71213070156
1	127502	1918.05592339849	1.71213057625
1	127885	1928.9790325699	1.71212973887
1	128309	1934.11210796667	1.71213006364
1	128877	1939.15096429889	1.71213293243
1	129138	1941.24386496267	1.71213107537
1	129373	1943.8531583042	1.71213006015
1	129567	1948.57105704727	1.71213010198
1	129884	1952.33655162073	1.7121302169
1	131289	1976.32144342303	1.71213047385
1	131706	1978.21919296033	1.7121302775
1	132478	1985.51223282417	1.71213161962
1	132901	1990.63963901753	1.71213095824
1	133084	2001.8340325819	1.71213072085
1	133311	2006.12198522443	1.7121297845
1	134610	2023.89159392115	1.71213009081
1	135066	2032.65140765362	1.71213076513
1	135249	2043.33805495297	1.71213108369
1	135386	2045.37769282898	1.71212965415
1	135583	2050.90470345171	1.71213140086
1	135903	2057.69400589788	1.71213039454
1	136778	2069.47455854622	1.71213041521
1	138113	2083.85364066943	1.71213058318
1	138636	2089.69674999162	1.7121316559
1	138814	2091.96957981767	1.71213057625
1	139582	2101.15279025138	1.71212973887
1	139865	2107.96236122001	1.71213070156
1	140773	2122.35760671449	1.71213006364
1	140998	2126.7639172426	1.71213107537
1	141139	2128.78634543399	1.7121302169
1	141361	2137.00429568355	1.71213208073
1	141909	2150.3055040707	1.71213042843
1	142586	2159.74520630964	1.71213133999
1	144805	2197.37078095035	1.71213221788
1	145294	2199.33953459172	1.79626286601
1	145966	2206.21998651244	1.71213072085
1	146434	2217.9706174188	1.71212965415
1	146819	2228.44805885538	1.71213159577
1	147110	2232.21547284706	1.71213039454
1	147777	2237.59543199456	1.71213009081
1	148431	2256.54030237063	1.7121297845
1	148630	2258.55220011361	1.71213058318
1	149224	2261.79801902054	1.71213213722
1	149642	2268.02768258839	1.71213014522
1	149954	2270.54101052812	1.7121300116
1	150332	2273.53824190597	1.71213136797
1	150877	2281.47182211726	1.71212973887
1	151237	2283.44255747969	1.71213028788
1	151649	2289.39926251404	1.71213070156
1	153485	2324.11729990663	1.71213374855
1	154048	2335.00294178148	1.71213094639
1	154377	2340.40310314261	1.71213042843
1	154629	2347.29784629101	1.7121302169
1	154965	2354.15420205558	1.71213069224
1	155325	2358.82304928453	1.71213083872
1	156451	2369.99952283424	1.7121302775
1	156643	2378.88782163934	1.71213010198
1	156969	2382.59751733341	1.71213047385
1	157501	2388.91441514313	1.71213202014
1	157991	2400.66998774913	1.71213037316
1	158475	2403.50436868135	1.71212965415
1	159000	2414.31075813477	1.71213088376
1	159205	2419.11806484546	1.71213076513
1	160134	2430.36157916579	1.71213009081
1	160606	2441.60752520781	1.71213014522
1	160959	2443.67576189525	1.94890836814
1	161487	2447.41614430404	1.71213358769
1	161873	2452.81099758609	1.7121300116
1	162528	2464.39213085816	1.7121297845
1	163464	2474.7171851202	1.71213140086
1	163868	2476.65593190594	1.71213041521
1	164411	2482.00930101987	1.71213057625
1	164673	2484.03644610936	1.71213107537
1	165054	2490.80134335387	1.71213006364
1	165419	2494.51553901673	1.71213028788
1	165761	2512.75078222172	1.71213043462
1	166196	2516.99201829498	1.71213124455
1	166706	2520.3546939237	1.7121309527
1	167434	2536.55023060902	1.71213042843
1	168573	2551.08447215012	1.71213010198
1	169062	2555.85202297901	1.71213047385
1	169628	2573.19348542367	1.7121327815
1	169936	2585.39679882503	1.71212971388
1	170539	2595.56610806725	1.71213095824
1	170772	2597.50945467707	1.71213088376
1	170951	2600.75599479637	1.71213037316
1	171138	2605.61701426301	1.71213009081
1	171466	2609.66461854551	1.71212965415
1	171768	2612.45983537292	2.08718279203
1	172501	2618.8449091969	2.62086090271
1	172839	2621.85334606874	1.71213076513
1	173268	2632.11217900381	1.71213180213
1	173524	2634.62633721753	1.71213169563
1	173828	2641.06704006652	1.7121300116
1	174203	2643.76377270402	2.5917458125
1	174667	2652.3946484493	1.71213024908
1	175041	2659.52540535753	1.71213072085
1	175514	2664.34700720804	1.71213140086
1	176410	2675.41161860252	1.71213041521
1	176742	2679.90178505408	1.71213006364
1	177095	2686.77765935185	1.71213070156
1	178130	2697.13071968426	1.7121322885
1	178426	2700.77208934888	1.71212973887
1	178557	2702.44504108091	1.71213028788
1	179194	2708.64883830859	1.71213006015
1	179473	2715.07029862489	1.71213124455
1	179719	2720.9017334224	1.7121302169
1	180439	2729.60530122601	1.71213043462
1	180756	2734.59518380132	1.71213161962
1	181230	2741.41194193826	1.71213010198
1	181802	2750.85994065095	1.7121302775
1	182302	2765.10676996287	1.71212971388
1	182594	2773.8880860486	1.71213095824
1	182820	2777.85263569342	1.71213009081
1	183737	2794.45655639817	1.71213063162
1	184050	2805.2555947167	1.71213039454
1	184465	2809.04609798119	1.71212965415
1	185378	2821.2416667881	1.7121325156
1	185915	2830.56409691464	1.71213024908
1	186304	2837.77487804021	1.96443786509
1	187279	2857.61727169326	1.71213108369
1	187531	2859.66155900044	1.71213060642
1	187603	2861.32896978052	1.71213070156
1	188286	2867.09584175822	1.7121316559
1	188748	2874.15667959852	1.71212973887
1	190161	2881.63782533888	1.7121309527
1	190568	2889.53592300392	1.71213006015
1	190897	2897.03723713027	1.7121297845
1	191555	2903.65315090173	1.71213041521
1	191811	2906.25554983871	1.71213043462
1	192645	2913.75776722826	1.71213028788
1	192911	2922.95971969076	1.7121302775
1	193737	2936.9385951373	1.71213094639
1	194913	2965.26331856184	1.71213221788
1	195089	2968.43361666491	1.71213133999
1	195270	2973.62976111053	1.71213063162
1	195732	2981.08749455281	1.71212965415
1	196997	3002.78479986016	1.71213014522
1	197157	3004.46585589041	1.71213037316
1	197417	3007.3322319738	1.71213024908
1	197797	3011.26571491352	1.71213202014
1	198018	3015.26247950106	1.71213039454
1	198326	3022.19248539281	1.71213262303
1	198647	3027.29924263223	1.7121300116
1	198996	3044.50793483152	1.71213070156
1	200612	3060.94190624207	1.71213006015
1	201288	3064.37583374572	3.28097597749
1	201847	3070.3311789399	1.71213140086
1	202106	3076.8252279143	1.71213041521
1	202554	3080.12229294966	1.71213119817
1	203083	3086.2998594247	1.71213279188
1	203588	3091.90280905116	3.68596688063
1	203768	3092.66805036157	1.97124457035
1	203847	3094.15466388823	1.71213010198
1	205382	3116.79036881312	1.7121297845
1	206311	3125.84871730094	1.71213094639
1	206555	3127.75354384868	1.7121302775
1	207001	3141.2935134089	1.71213133999
1	207180	3145.03618927761	1.71213063162
1	207490	3152.47599790673	1.71212965415
1	208156	3165.63392921625	1.71213009081
1	208580	3181.07052585058	1.71212971388
1	208875	3186.14451489325	2.68372395892
1	209173	3200.7402768894	1.71213043462
1	209472	3202.84155585668	2.02876101085
1	210185	3210.68250872214	1.71213275308
1	210401	3212.6398965711	1.7121300116
1	210765	3215.48085513847	1.71213014522
1	211600	3237.64295597238	1.71213070156
1	211961	3240.43017390384	1.71213057625
1	212625	3247.03745420316	1.71213107537
1	213190	3256.71591004157	1.71212973887
1	213652	3262.20278650362	1.7121316559
1	213874	3267.10312127251	1.71213006364
1	214307	3270.59929381415	1.71213042843
1	214751	3273.42120324177	2.59240754618
1	215306	3280.70827758067	1.71213006015
1	215759	3288.76360687597	1.71213133699
1	216058	3292.7941678704	1.7121297845
1	216501	3297.59183034231	1.71213120801
1	217570	3305.29244118483	1.71213159577
1	218468	3314.54581822802	1.71213161962
1	218956	3325.8435302458	1.71212965415
1	219178	3328.53677322514	1.71213126481
1	219855	3332.38816925396	1.71213297785
1	220184	3348.71563038582	1.7121302775
1	220792	3355.48405868817	1.71213094639
1	221037	3365.50340356971	1.71213009081
1	221367	3369.26963631411	1.71213037316
1	221703	3377.44123919067	1.71213039454
1	222048	3386.88077095648	1.7121300116
1	222463	3390.02247162677	1.71213024908
1	223388	3421.46226651452	1.71213083872
1	223634	3425.98872328018	1.71212971388
1	224366	3431.87231491518	1.71213070156
1	224883	3436.03588978944	1.71213014522
1	225208	3442.90016927748	1.71212973887
1	225774	3453.92704585526	1.71213256415
1	226147	3457.32076949668	1.71213006364
1	226526	3459.3272447609	1.71213057625
1	227282	3470.7572587308	1.71213076513
1	228706	3487.39072434615	1.71213041521
1	228974	3489.93317058422	1.71213069224
1	229877	3501.33173860414	1.7121297845
1	230461	3513.28916554964	1.71212965415
1	231353	3518.46252676178	1.71213047385
1	232583	3546.6930433719	1.71213037316
1	232998	3554.92526061891	1.7121302169
1	233337	3573.86787249657	1.71213039454
1	233741	3575.58535389982	1.71213338776
1	234377	3582.1760893163	1.71213058318
1	234549	3590.16322045846	1.7121300116
2	10457	61.00427251192	1.71213060642
2	10763	68.79258010986	1.71212965415
2	11107	72.63290271577	1.71213037316
2	11616	77.27080427302	1.71213058318
2	12333	180.86538942176	1.71213370217
2	12502	186.98520466704	1.71213063162
2	13997	196.6864452752	1.7121300116
2	15222	204.03964007407	1.71213043462
2	16035	209.22463359991	1.71212973887
2	17726	215.95814038726	1.71212971388
2	18984	222.23893786184	1.71213057625
2	19324	224.21082138443	1.71213095824
2	19510	226.44462464623	1.71213133999
2	20020	230.14273366842	3.55822825141
2	20645	232.95687205702	1.7121302775
2	21823	249.23292478146	1.71213083872
2	22144	259.85898918416	1.71212965415
2	22322	262.40088463964	1.71213006364
2	22743	266.31473989466	1.7121302169
2	23009	269.60044250403	1.71213037316
2	23368	273.9126686523	1.71213014522
2	23648	279.17306708951	1.71213076513
2	24100	324.32777724798	1.71213311042
2	24754	363.74166362314	1.71213119817
2	25704	373.49715034331	1.71213028788
2	26265	381.30550664496	1.7121300116
2	27638	391.46061458496	1.71213024908
2	27997	395.78130288171	1.71212971388
2	30478	412.55494534158	1.71213047385
2	30829	414.70553095812	1.71213124455
2	31195	418.47586499818	1.71213057625
2	32066	429.96008560599	1.71213006015
2	32828	434.46083962594	1.71213180213
2	33296	440.10450715369	1.71213006364
2	33721	443.41624674404	1.7121302169
2	34436	445.39029205401	1.7121327815
2	34897	447.81156137898	1.71213041521
2	35098	455.26109915081	1.71213037316
2	35969	470.25763656764	1.71213208073
2	36273	494.53438528108	1.71212965415
2	36492	499.76374269513	1.71213060642
2	36831	544.50062833736	1.71213107537
2	37168	548.17918878048	1.71213114722
2	38246	568.54812952428	1.71213259481
2	38895	575.48445074476	1.71213042843
2	39362	577.60680340219	1.71212973887
2	39864	579.67026442869	1.7121300116
2	40700	584.26153602463	1.71213104919
2	41195	586.14384771195	1.71212971388
2	41888	591.28764763727	1.71213072085
2	42317	596.15544447134	1.71213057625
2	42486	601.20259905448	1.71213124455
2	43446	609.14930385885	1.71213006015
2	44428	622.50896707853	1.7121302775
2	45402	634.6745121715	1.71213037316
2	46514	642.73528334033	1.71213076513
2	47066	645.75083138646	1.71213010198
2	47285	656.96646081233	1.7121320933
2	47526	660.40410459988	1.71213014522
2	47797	662.27630603621	1.71213126481
2	48345	677.6799015722	1.71212965415
2	48648	686.26569848199	1.71213108369
2	48857	700.16345692064	1.7121327209
2	49034	706.88764651958	1.71213060642
2	49219	715.5088561197	1.71213119817
2	49524	738.1659676531	1.71213070156
2	50038	745.06395532832	1.71213024908
2	50565	750.81471746947	1.71213094639
2	50714	752.698825997	1.71212973887
2	51291	758.73177692142	1.71213043462
2	52385	766.80534060836	1.71213063162
2	52543	770.70595631669	1.7121297845
2	52804	774.7294062645	1.7121300116
2	53812	785.29167847567	1.71213241336
2	54826	794.47263750762	1.71213006364
2	55206	797.17882192627	1.71213057625
2	55853	802.62217886357	1.71213028788
2	56255	804.80310636969	1.71213006015
2	56554	808.10826278309	1.7121322811
2	57239	817.9047550762	1.71213208073
2	57608	823.00115285757	1.7121327815
2	57909	825.73484109601	1.71213041521
2	58446	831.27657472479	1.71213076513
2	58693	836.95434600069	1.71213010198
2	59253	841.71659398624	1.71212971388
2	59961	860.71747988754	1.71213120801
2	60435	879.10881979516	1.71212965415
2	61362	903.59511321633	1.71213060642
2	61595	910.29361987664	1.7121302169
2	62116	923.54095640497	1.71213009081
2	62312	931.87714570498	1.71213058318
2	62943	939.90949977828	1.71213039454
2	63593	946.02527485257	1.71213293243
2	64136	959.01793067516	1.71213043462
2	64547	961.18590171148	1.7121300116
2	65171	971.36091240121	1.7121316559
2	65557	973.44576407496	1.71213088376
2	65835	975.95156837569	1.71213028788
2	65997	979.84339938245	1.71213006364
2	68163	998.55190958153	1.71213063162
2	68754	1003.38483956711	3.34716300516
2	69497	1014.00003446686	1.71213083872
2	69979	1017.23136490368	1.71212971388
2	70275	1020.06687454689	1.7719020264
2	70578	1023.385181621	1.71213069224
2	71001	1027.54484470537	1.7121297845
2	71223	1030.62287853696	1.71213095824
2	72892	1074.69608989529	1.71213215815
2	73041	1085.51624216102	1.71213070156
2	73236	1088.99921216056	1.71213014522
2	73557	1098.53471005111	1.71213009081
2	73733	1101.35373317983	1.7121302169
2	74432	1112.38905111571	1.71213108369
2	74890	1116.41590478172	1.71213024908
2	75413	1122.76963025261	1.71213042843
2	75777	1128.89636397265	1.71213133699
2	76614	1140.67329408386	1.71213114722
2	77252	1146.22011740822	1.71213043462
2	78438	1161.83887158329	1.71213159577
2	78988	1169.64779376104	1.71213124455
2	79313	1174.28833559104	1.71213006364
2	79726	1176.76577864573	1.71212973887
2	79935	1180.95280781982	1.71213006015
2	80790	1190.79066492069	1.71213094639
2	81014	1197.08774543868	1.71213384399
2	81354	1205.14770255197	1.71213216181
2	81891	1209.23221471054	1.71212971388
2	82823	1219.25782020849	1.71213104919
2	83190	1227.18374254606	1.71213076513
2	83610	1241.74136719104	1.71213241336
2	84618	1250.13891458716	1.71212965415
2	85309	1263.31117322903	1.71213014522
2	85476	1266.49938127247	1.71213070156
2	85658	1273.87975498535	1.71213009081
2	86182	1283.24461588415	1.71213126481
2	86369	1285.94313730752	1.71213108369
2	86749	1292.78114717695	1.71213041521
2	87822	1315.55668176736	1.71213042843
2	88056	1318.74733973028	1.71213311042
2	88932	1331.11225333479	1.7121300116
2	89439	1334.12471132569	1.71213088376
2	90056	1347.0427595641	1.71213180213
2	90310	1350.34843967855	1.71213057625
2	90645	1353.85866751006	1.7121309527
2	91197	1366.30696368817	1.7121302169
2	92591	1382.3546206285	1.71213120801
2	92836	1384.86957314831	1.71213006015
2	93049	1386.92605886947	1.71213107537
2	93271	1391.33366806303	1.71212973887
2	93541	1394.41550646228	1.71212971388
2	93892	1398.78892635475	1.71213010198
2	94099	1403.24730260745	1.71213076513
2	94517	1407.96660691375	1.96043110601
2	94576	1409.46438377389	1.71213069224
2	95662	1428.74506552454	1.71213037316
2	96007	1434.19249687651	1.71213047385
2	96640	1445.59512642291	1.71213264922
2	96984	1452.60216870076	1.71213119817
2	97367	1455.66487754335	1.71213070156
2	97779	1459.58631788148	1.7121297845
2	98160	1462.29381441987	1.71213126481
2	98322	1473.27518473347	1.71213140086
2	98808	1479.65814748007	1.71213009081
2	99226	1495.66357344399	1.71212965415
2	99490	1499.02188574736	1.71213041521
2	99947	1506.36972757208	1.7121316559
2	100279	1509.26625860364	1.71213060642
2	100654	1511.66771033422	1.71213039454
2	100868	1519.46069684161	1.71213042843
2	101031	1522.08749507393	1.7121300116
2	101385	1525.83350901421	1.71213058318
2	101755	1532.52442798283	2.57954560669
2	101998	1536.74896993772	1.71213028788
2	102701	1543.59585287338	1.71213043462
2	103055	1548.72980345463	1.7121302169
2	103623	1554.78467144192	1.71213006364
2	103921	1557.64921606575	1.71213072085
2	104450	1562.52451926025	4.45600003162
2	104529	1562.69785765466	2.43389661663
2	104786	1564.57570081934	1.71213107537
2	105079	1567.03994271726	1.71213256415
2	105311	1570.91376408246	1.71212971388
2	106188	1584.87145383978	1.71212973887
2	107427	1607.44461515646	1.71213047385
2	107764	1609.40634397376	1.7121302775
2	108196	1620.13207881153	1.71213083872
2	108637	1627.34983322146	1.71213161962
2	108973	1630.18278146968	1.71213095824
2	109604	1636.80300152438	1.71213070156
2	109786	1646.93427173279	1.7121297845
2	110004	1652.18766517664	1.7121322811
2	110309	1670.64261652555	1.71213009081
2	110522	1673.46894433862	1.71213108369
2	110899	1678.28352307573	1.71212965415
2	111241	1682.9411126785	1.71213039454
2	111895	1692.00053992383	1.71213291921
2	112223	1697.20993449917	1.71213063162
2	112846	1703.44244586542	1.7121300116
2	113206	1706.45263196967	1.71213042843
2	113555	1708.43337735537	1.71213014522
2	114272	1715.77170727508	1.71213024908
2	115123	1729.52997902235	1.7121302169
2	115418	1732.71195817849	2.69906532484
2	115757	1736.11319413442	1.71213057625
2	116263	1744.53365260958	1.71213114722
2	116585	1749.40228174762	1.71213120801
2	116743	1756.7843599625	1.71212973887
2	117164	1759.47920973014	1.71212971388
2	117588	1761.35656462955	1.71213010198
2	118085	1775.5739459586	1.71213069224
2	119065	1786.72911309428	1.71213104919
2	119592	1794.06044974742	1.71213133999
2	120492	1805.31016651693	1.7121302775
2	120769	1807.67857081292	1.71213072085
2	121462	1815.50728020803	1.71213376881
2	121613	1829.08438640628	1.7121297845
2	121911	1835.48204329769	1.7121320933
2	122297	1845.09973541778	1.71213009081
2	123104	1863.5825881887	1.71212965415
2	123331	1868.60577255228	1.71213108369
2	123644	1874.48816945519	1.71213058318
2	124546	1884.24038986567	1.71213014522
2	124943	1887.5425080918	1.71213041521
2	125282	1890.38838879166	1.7121300116
2	125809	1895.43884454377	1.71213024908
2	126112	1900.18757335135	1.71213060642
2	126656	1907.13649426829	1.71213070156
2	127502	1918.05592339849	1.71213057625
2	127885	1928.9790325699	1.71212973887
2	128309	1934.11210796667	1.71213006364
2	128877	1939.15096429889	1.71213293243
2	129138	1941.24386496267	1.71213107537
2	129373	1943.8531583042	1.71213006015
2	129567	1948.57105704727	1.71213010198
2	129884	1952.33655162073	1.7121302169
2	131289	1976.32144342303	1.71213047385
2	131706	1978.21919296033	1.7121302775
2	132478	1985.51223282417	1.71213161962
2	132901	1990.63963901753	1.71213095824
2	133084	2001.8340325819	1.71213072085
2	133311	2006.12198522443	1.7121297845
2	134610	2023.89159392115	1.71213009081
2	135066	2032.65140765362	1.71213076513
2	135249	2043.33805495297	1.71213108369
2	135386	2045.37769282898	1.71212965415
2	135583	2050.90470345171	1.71213140086
2	135903	2057.69400589788	1.71213039454
2	136778	2069.47455854622	1.71213041521
2	138113	2083.85364066943	1.71213058318
2	138636	2089.69674999162	1.7121316559
2	138814	2091.96957981767	1.71213057625
2	139582	2101.15279025138	1.71212973887
2	139865	2107.96236122001	1.71213070156
2	140773	2122.35760671449	1.71213006364
2	140998	2126.7639172426	1.71213107537
2	141139	2128.78634543399	1.7121302169
2	141361	2137.00429568355	1.71213208073
2	141909	2150.3055040707	1.71213042843
2	142586	2159.74520630964	1.71213133999
2	144805	2197.37078095035	1.71213221788
2	145294	2199.33953459172	1.79626286601
2	145966	2206.21998651244	1.71213072085
2	146434	2217.9706174188	1.71212965415
2	146819	2228.44805885538	1.71213159577
2	147110	2232.21547284706	1.71213039454
2	147777	2237.59543199456	1.71213009081
2	148431	2256.54030237063	1.7121297845
2	148630	2258.55220011361	1.71213058318
2	149224	2261.79801902054	1.71213213722
2	149642	2268.02768258839	1.71213014522
2	149954	2270.54101052812	1.7121300116
2	150332	2273.53824190597	1.71213136797
2	150877	2281.47182211726	1.71212973887
2	151237	2283.44255747969	1.71213028788
2	151649	2289.39926251404	1.71213070156
2	153485	2324.11729990663	1.71213374855
2	154048	2335.00294178148	1.71213094639
2	154377	2340.40310314261	1.71213042843
2	154629	2347.29784629101	1.7121302169
2	154965	2354.15420205558	1.71213069224
2	155325	2358.82304928453	1.71213083872
2	156451	2369.99952283424	1.7121302775
2	156643	2378.88782163934	1.71213010198
2	156969	2382.59751733341	1.71213047385
2	157501	2388.91441514313	1.71213202014
2	157991	2400.66998774913	1.71213037316
2	158475	2403.50436868135	1.71212965415
2	159000	2414.31075813477	1.71213088376
2	159205	2419.11806484546	1.71213076513
2	160134	2430.36157916579	1.71213009081
2	160606	2441.60752520781	1.71213014522
2	160959	2443.67576189525	1.94890836814
2	161487	2447.41614430404	1.71213358769
2	161873	2452.81099758609	1.7121300116
2	162528	2464.39213085816	1.7121297845
2	163464	2474.7171851202	1.71213140086
2	163868	2476.65593190594	1.71213041521
2	164411	2482.00930101987	1.71213057625
2	164673	2484.03644610936	1.71213107537
2	165054	2490.80134335387	1.71213006364
2	165419	2494.51553901673	1.71213028788
2	165761	2512.75078222172	1.71213043462
2	166196	2516.99201829498	1.71213124455
2	166706	2520.3546939237	1.7121309527
2	167434	2536.55023060902	1.71213042843
2	168573	2551.08447215012	1.71213010198
2	169062	2555.85202297901	1.71213047385
2	169628	2573.19348542367	1.7121327815
2	169936	2585.39679882503	1.71212971388
2	170539	2595.56610806725	1.71213095824
2	170772	2597.50945467707	1.71213088376
2	170951	2600.75599479637	1.71213037316
2	171138	2605.61701426301	1.71213009081
2	171466	2609.66461854551	1.71212965415
2	171768	2612.45983537292	2.08718279203
2	172501	2618.8449091969	2.62086090271
2	172839	2621.85334606874	1.71213076513
2	173268	2632.11217900381	1.71213180213
2	173524	2634.62633721753	1.71213169563
2	173828	2641.06704006652	1.7121300116
2	174203	2643.76377270402	2.5917458125
2	174667	2652.3946484493	1.71213024908
2	175041	2659.52540535753	1.71213072085
2	175514	2664.34700720804	1.71213140086
2	176410	2675.41161860252	1.71213041521
2	176742	2679.90178505408	1.71213006364
2	177095	2686.77765935185	1.71213070156
2	178130	2697.13071968426	1.7121322885
2	178426	2700.77208934888	1.71212973887
2	178557	2702.44504108091	1.71213028788
[...]
55	118843	1785.91709298591	453.62853026246
55	132305	1985.26314224659	86.182613685801
55	142421	2159.33506300502	1293.6399042329
55	153731	2333.29081083509	504.64698417116
55	168262	2547.99387524595	851.40004284094
55	181264	2745.73656444941	128.28005987238
55	193419	2935.22646419091	894.41198135693
55	205993	3124.13658635455	672.2837383488
55	220474	3353.77192774178	832.44846642416
55	234591	3591.15701603469	2.0089526846171
56	18993	222.49869042619	455.43727692205
56	28748	401.51097750678	25.663723283282
56	43732	617.62735918115	128.03790948724
56	55697	802.59516450598	891.03798352803
56	71048	1028.91074757872	82.362294739167
56	84405	1249.24682707113	866.228071911
56	95526	1428.43035148153	510.26451178211
56	108642	1628.47065051144	773.37703598705
56	120787	1809.89726721172	96.550544990971
56	132650	1988.92750805929	332.95354802128
56	145388	2200.94255817128	132.62681626261
56	158265	2402.20481998579	129.14620717622
56	170211	2593.85397710901	184.836095664
56	182424	2772.17595509036	1127.0177065194
56	194001	2947.18966195861	264.0971170025
56	205915	3124.10005070018	587.28792818392
56	218648	3322.23494063154	17.502793497559
56	229352	3496.55816785158	70.73725286738
57	19333	224.73249330624	74.869556807382
57	33164	438.54537467342	2284.8725356221
57	45264	634.3855435033	81.75792561239
57	58035	828.27886960321	220.19627518042
57	69601	1015.46558086994	1084.5934882535
57	80814	1195.37561159469	764.29684712318
57	92357	1382.09836044546	57.389708179141
57	107811	1617.76673233796	1234.9319858053
57	119424	1792.34831840743	488.90876751603
57	131069	1975.09980549414	414.14944483177
57	142266	2158.03307496965	152.78847604301
57	155588	2362.37048909104	861.81606022051
57	168602	2552.60114704285	154.82492230129
57	181653	2749.53920234515	1077.2428651787
57	194918	2966.72148532492	1949.2862515632
57	206760	3139.58138206891	833.75592626184
57	219181	3328.55299006921	846.97165765738
57	230505	3513.48000839819	345.89792682649
58	19519	226.58450541701	190.53573164653
58	29868	409.66631920961	174.9470884406
58	41310	586.85915881192	309.51344762885
58	59294	842.94196757084	45.20199975466
58	70365	1021.67305092876	154.19302460835
58	82003	1209.95471688008	653.35341805899
58	94438	1407.75225308165	581.59182763946
58	105669	1582.16933094464	142.90519984967
58	117953	1773.86181526636	411.46067615404
58	129594	1950.08316465116	569.75829916449
58	141935	2150.36821270304	1847.8285576631
58	154832	2352.44207136334	147.29475165188
58	167626	2541.70100074742	504.85865469366
58	179922	2727.19637135611	339.77218880312
58	192022	2911.20821195212	353.74919512373
58	204116	3101.89986254441	263.48836488516
58	216682	3299.9742163079	180.65100803479
58	228749	3488.22103989198	620.84874515313
59	19598	226.78019962381	308.51411740671
59	28983	401.91464363007	728.25019820592
59	38588	574.23957769546	1726.7303890091
59	50244	748.20849228019	1009.3916965803
59	62337	932.10601551815	364.35605699814
59	73943	1107.68935726335	191.90186999616
59	85778	1280.15935259341	1617.4495924705
59	101575	1529.94488237614	356.70664838384
59	114476	1718.03991210324	847.71223225324
59	125325	1890.68345974249	36.92240087726
59	137131	2071.46739766214	71.540761173679
59	149662	2268.55954006735	1185.4341992913
59	162811	2467.07508925328	436.43504273322
59	173947	2641.47873624827	288.45917871195
59	184784	2814.46947988442	147.18529978004
59	196104	2986.96222391233	301.67880791328
59	207863	3163.57362996432	111.94458429214
59	219876	3335.89864474735	875.31632115272
59	232039	3524.85654299933	3.4009323731148
60	19864	229.56336158943	410.18773679488
60	31285	419.91100570222	1598.5494653772
60	42670	603.75043561018	201.69408545101
60	53245	781.22588834074	155.81008940705
60	64767	969.64878074531	587.56301077226
60	77308	1149.49814339819	68.45293939493
60	88566	1327.41140725209	58.194862073046
60	99695	1504.65759591618	66.28199487444
60	114398	1717.981045156	453.85627498619
60	126942	1913.27815122055	867.80946524598
60	138457	2087.98461833572	343.05838408497
60	153651	2332.20570344535	2118.4698651462
60	166535	2519.04711792088	234.44287642472
60	177608	2692.77571746921	191.43496032461
60	187960	2865.38371010232	114.42167655871
60	199191	3048.46988955956	198.89492184516
60	213475	3260.49065484772	660.95041995177
60	225777	3454.7818576313	989.21027146102
61	19942	230.08741800356	135.762671528
61	28905	401.84184397849	1107.5653868516
61	38510	573.77232031633	933.43787205149
61	51652	761.143448528	521.9853413845
61	63235	944.31314192014	531.28475495218
61	75261	1121.05749982418	322.75273074268
61	87672	1313.84455133893	936.08967919489
61	100720	1517.74856641318	786.18656212211
61	112972	1704.74050154124	740.55772628064
61	128596	1937.43883136646	108.52785643924
61	141603	2148.59337364227	406.70445783481
61	154148	2338.69097271418	84.739543450207
61	167283	2534.83810018059	1377.9917514945
61	179766	2725.62857072282	495.38624864875
61	191681	2905.91868623218	187.78503960244
61	203244	3088.21684217053	334.22489785517
61	214078	3268.88716338572	944.16500588498
61	229918	3501.5972996313	796.93571408218
62	20021	230.16812854163	22.574161418148
62	32493	432.74870782381	468.23425457809
62	43060	606.48159449181	191.79223166245
62	54375	791.59844759803	68.168318570842
62	67753	994.07727692087	396.296250471
62	78838	1169.12878612262	105.44970281293
62	89884	1345.33062776197	611.25862488069
62	106412	1593.19279829294	34.731142278475
62	122332	1845.11664836253	1069.9948263904
62	138294	2085.74264204263	527.87786203895
62	150163	2273.30878059326	335.38824603367
62	161580	2450.57031477703	501.85326474171
62	173018	2630.40004720168	68.719193655432
62	183921	2805.13129937789	717.26667176769
62	195939	2984.24233815587	161.08324359802
62	211105	3218.49012516584	1755.6391127274
62	223492	3425.14387819568	353.12204146415
63	20104	230.93648852676	1430.9219430548
63	30511	412.99339971357	177.22850505724
63	42334	599.49046780993	1372.9765530829
63	55212	797.29001893697	321.56634182504
63	66228	983.85810187105	379.66034506718
63	78683	1167.93566251649	138.8004701568
63	90731	1354.20188406742	218.00602315163
63	103492	1553.9073894546	566.25120120425
63	115849	1738.56852082921	404.00515875592
63	127174	1915.76735617183	1194.0542705404
63	141370	2145.53942540559	339.95679444631
63	153285	2322.40516615808	682.26662991722
63	165888	2515.27988705043	496.29209320467
63	179245	2713.35816738034	251.53409603204
63	191091	2897.9776084232	935.81599162102
63	203880	3097.99207352089	1130.5239997608
63	216837	3300.36606616258	369.77574535472
63	227921	3483.1782141326	19.025854538374
64	20182	231.24474177952	92.250059069256
64	33761	443.67815927251	1928.8498162399
64	44272	620.79683680103	567.88619906856
64	57327	821.28902007607	2366.9882437099
64	69081	1010.00410186709	306.21594742765
64	80044	1182.24277205245	47.210846396391
64	95184	1420.32157453017	44.902419720202
64	107460	1607.69421369626	570.36792338901
64	120260	1803.59803623943	931.00229704608
64	131322	1976.50706268283	1738.1473043929
64	144218	2194.79363640478	1915.2566589943
64	156147	2368.28739255674	1368.3402505561
64	169425	2571.48135264217	644.51066132308
64	181573	2749.14781037345	271.06688374263
64	192764	2921.24758941326	493.90356138965
64	206324	3126.04141357118	1138.8824960223
64	220037	3347.00350010832	239.74093887808
64	231212	3518.27179698927	704.34248528432
65	20672	233.2070097053	1322.3873316084
65	31921	429.82952535935	200.03597822113
65	43888	619.04115882254	97.278254054964
65	54692	793.43848518543	888.79106183996
65	66044	980.58155080389	19.227750170271
65	79181	1173.12950772851	385.28150202834
65	90398	1352.14653655736	1352.4833941403
65	102416	1542.07518671778	746.39317658966
65	114989	1729.49395574856	474.72973329317
65	130171	1956.16527953864	716.47790654412
65	142754	2161.57056145262	178.15264126655
65	153886	2334.79645722809	54.844149022079
65	166380	2518.642562971	427.22068095241
65	178742	2706.72341244909	716.49436600723
65	189904	2879.92569438618	2864.4925456616
65	200879	3062.42669505763	296.84935067067
65	212133	3243.42635465813	59.290086100667
65	223749	3427.96213126095	927.2287277708
66	20759	234.76296721372	11.097091851256
66	34593	446.09943096377	422.60502331508
66	45676	636.48264679868	21.756372567523
66	57691	824.0227106808	132.76999760107
66	74522	1114.55770184763	1919.2469375672
66	86459	1291.06901676174	2258.7677542972
66	99349	1497.30975533215	62.474891402861
66	111694	1690.28840700462	1958.9989380886
66	124724	1885.83037767659	102.45721054346
66	136482	2067.76242813101	1479.3411632362
66	151842	2292.12388257421	352.05154017811
66	163494	2474.94380149073	545.55739802919
66	176192	2673.69948818731	439.38861638423
66	191417	2901.94102048652	278.80939029414
66	201970	3075.11309749909	72.406998377791
66	216604	3299.93185543043	670.3978142888
66	228483	3485.67859393094	111.85922639148
67	20985	236.47509762893	1.71213041521
67	35607	463.30546055952	1.71213010198
67	45819	637.04962678027	1.71213047385
67	49706	741.43322575584	1.71213009081
67	56863	813.66955649686	1.71213037316
67	59432	844.65409826308	1.71213069224
67	61780	914.05869115585	1.71213070156
67	66213	982.29368175659	1.7121309527
67	66764	986.86098621899	1.71213006015
67	69232	1010.67532243667	1.71213010198
67	72167	1062.41418001439	1.71213037316
67	76232	1133.5472137343	1.71213039454
67	76917	1143.79372940255	1.7121300116
67	80272	1183.95490232995	1.7121302775
67	82447	1210.96117585709	1.7121297845
67	88527	1323.15703693577	1.71213058318
67	95410	1422.03370480767	1.7121302775
67	114854	1721.97889033703	1.71213043462
67	120066	1801.21166851033	1.71213047385
67	125506	1892.39559130355	1.71213156106
67	130627	1959.38767493888	1.71212971388
67	136156	2060.31081680394	1.71213313562
67	137777	2077.95585995528	1.71213014522
67	140365	2116.76578649002	1.71213006015
67	143158	2169.84489189547	1.71213083872
67	157733	2393.52117303598	1.71212971388
67	160353	2438.0257624288	1.71213063162
67	162956	2467.16346974534	1.71213006015
67	165580	2509.47832988587	1.71212973887
67	184747	2811.28502081182	1.71213058318
67	196409	2994.00148053819	1.71213009081
67	198503	3023.988071751	1.71213169563
67	205081	3112.99111772126	1.7121326079
67	209888	3206.05668009209	1.94905768491
67	211448	3231.29257965984	1.71213136797
67	212813	3249.92860970034	1.71213213722
67	218818	3323.94707158978	1.71213095824
67	220361	3351.17747049283	1.71213088376
67	228378	3484.89034537715	1.71213124455
68	20985	236.47509762893	1.71213041521
68	35607	463.30546055952	1.71213010198
68	45819	637.04962678027	1.71213047385
68	49706	741.43322575584	1.71213009081
68	56863	813.66955649686	1.71213037316
68	59432	844.65409826308	1.71213069224
68	61780	914.05869115585	1.71213070156
68	66213	982.29368175659	1.7121309527
68	66764	986.86098621899	1.71213006015
68	69232	1010.67532243667	1.71213010198
68	72167	1062.41418001439	1.71213037316
68	76232	1133.5472137343	1.71213039454
68	76917	1143.79372940255	1.7121300116
68	80272	1183.95490232995	1.7121302775
68	82447	1210.96117585709	1.7121297845
68	88527	1323.15703693577	1.71213058318
68	95410	1422.03370480767	1.7121302775
68	114854	1721.97889033703	1.71213043462
68	120066	1801.21166851033	1.71213047385
68	125506	1892.39559130355	1.71213156106
68	130627	1959.38767493888	1.71212971388
68	136156	2060.31081680394	1.71213313562
68	137777	2077.95585995528	1.71213014522
68	140365	2116.76578649002	1.71213006015
68	143158	2169.84489189547	1.71213083872
68	157733	2393.52117303598	1.71212971388
68	160353	2438.0257624288	1.71213063162
68	162956	2467.16346974534	1.71213006015
68	165580	2509.47832988587	1.71212973887
68	184747	2811.28502081182	1.71213058318
68	196409	2994.00148053819	1.71213009081
68	198503	3023.988071751	1.71213169563
68	205081	3112.99111772126	1.7121326079
68	209888	3206.05668009209	1.94905768491
68	211448	3231.29257965984	1.71213136797
68	212813	3249.92860970034	1.71213213722
68	218818	3323.94707158978	1.71213095824
68	220361	3351.17747049283	1.71213088376
68	228378	3484.89034537715	1.71213124455
69	21030	237.44659085143	45.174667293849
69	30334	412.08969162521	469.77098155484
69	45855	637.71937457278	421.04761135391
69	59486	849.29402513461	49.629068856659
69	71867	1058.66183182782	4.5554027327153
69	87358	1306.73017711034	40.51118106887
69	100286	1509.41793145246	543.68947264682
69	111112	1682.68218733733	418.80338501624
69	126206	1905.02836114619	459.61837369552
69	137964	2083.71149156034	376.82288339461
69	151005	2282.75294852153	242.62663744294
69	165104	2492.76907683054	277.96599641106
69	177524	2691.27287200924	164.9577565208
69	189031	2875.37203182416	2174.1962428604
69	202645	3083.37099060469	679.48783239763
69	214673	3273.34275394015	427.03751543771
69	226864	3464.13843598692	94.933363326861
70	21110	237.74054650663	397.13303471013
70	33584	442.36574961717	12.69817627666
70	46016	638.837596139	97.853795562135
70	60563	887.23235436165	1339.682112988
70	72293	1067.81327539945	559.05766966909
70	83436	1240.90253926837	612.26475774279
70	98858	1489.19970662767	29.694686173563
70	110533	1676.38546378697	310.11968240207
70	124150	1881.0024655222	139.81057946226
70	140396	2117.57805974168	289.36436703462
70	156064	2367.08615530989	540.60378890361
70	168921	2555.73870888131	556.72174677628
70	189419	2876.78635310069	80.948387323736
70	200797	3061.40952995722	127.16257750946
70	215923	3292.33946574233	191.58613983128
70	231469	3519.19813038586	446.52332043648
71	21190	238.62532440109	418.1376673505
71	34233	444.91118112755	10.376348033037
71	44632	627.83833205036	103.17545654048
71	56907	816.11914201848	403.56211422181
71	67595	993.15367802727	1270.8401125336
71	78604	1167.1931529836	473.57558753817
71	94625	1411.26691354872	885.38810736964
71	106566	1594.41612742766	873.40410933491
71	119924	1800.43430122007	405.44199310179
71	131148	1976.06593624112	388.82810416763
71	145987	2210.3492941055	1003.5035719096
71	159371	2426.13544695278	152.79839449715
71	171591	2611.01860201224	63.124044599286
71	182946	2784.72165034444	544.68125570581
71	195601	2980.70181739026	1696.3980787163
71	208203	3171.65359178515	2288.8626047538
71	220555	3355.2919827433	261.17417586954
71	233049	3563.6541806751	161.95057507089
72	21594	247.52079394274	725.81733025527
72	32916	435.79586961076	307.74637916671
72	47369	659.72167141237	169.90788543367
72	58796	838.67301014942	771.81083904578
72	69336	1012.28790362814	542.58874750799
72	83927	1245.25053872595	64.897843456952
72	96129	1441.16539843357	361.71771378743
72	107889	1618.41994797281	750.54890015334
72	120868	1811.08273609939	53.284714989207
72	132571	1988.27660035479	634.39045578524
72	143005	2168.13276105675	25.960413034905
72	155092	2357.11091844581	486.52396220863
72	166813	2528.38059868067	199.93832101685
72	178662	2706.01659506161	611.25814948164
72	190268	2886.42541157827	1090.5535976689
72	200641	3060.9529825993	173.24533387379
72	211634	3238.19646001016	140.84416078161
72	223235	3419.7501356758	645.95792441392
73	22187	260.688754576	1499.5623178419
73	33083	438.39237709005	359.47363256944
73	43654	617.47264112584	272.9119498304
73	54456	792.76050744398	982.30607403026
73	65867	978.13126931881	692.72253627369
73	79099	1172.5762055274	595.32356385805
73	91239	1366.45785446108	575.79712021259
73	103337	1553.07254137828	280.39070918966
73	115163	1730.01289285365	424.29885916529
73	128171	1932.39997790303	409.73327346964
73	140636	2120.64547665085	218.35631783506
73	152084	2293.60618983702	208.07230561096
73	164847	2489.08921329023	91.021712875193
73	176530	2678.18965499044	699.71399121223
73	192100	2911.5446270303	34.326818955976
73	203506	3090.69680579122	191.2117908773
73	213665	3265.39099120887	85.982871596947
73	225858	3455.60863943304	697.32802299596
74	22368	263.21437047918	85.607027680138
74	34152	444.39945006329	426.94913373875
74	45185	634.0730759425	585.61950911343
74	58876	839.36297301884	424.37669185895
74	70706	1025.21284397698	2439.4200608186
74	81179	1203.43557039016	1085.5930643099
74	92032	1375.26214026576	413.47521046866
74	107206	1606.11443415032	287.60167909601
74	119264	1790.53544132442	335.5943233386
74	133509	2008.09574300761	126.11000605444
74	147160	2233.33918920827	1166.8097153877
74	158683	2406.24838858311	140.23758569413
74	169975	2589.31682311423	206.92087651786
74	182162	2764.22348410746	1356.5284090874
74	193576	2936.58200547038	2297.527009291
74	204672	3111.08443833023	143.56007290488
74	217824	3310.04178732784	523.47929757428
74	227843	3483.08855292764	244.23564458293
75	22452	264.60260967776	1116.5895442994
75	33426	441.70411652714	222.87155865846
75	48657	698.45132419974	718.57012387699
75	61461	908.58148965974	777.86772942863
75	73594	1099.64160296293	97.942945821686
75	91062	1364.59483347127	92.212959582027
75	102912	1547.01767323773	1021.7493734176
75	114911	1727.81784880545	131.97079344019
75	129673	1950.62442140383	429.72057898463
75	141001	2127.07421521709	694.36623536164
75	154493	2345.58571607411	173.69154477334
75	167046	2531.92685040047	395.19538635681
75	179585	2719.1896032055	189.05092128951
75	191941	2910.01948113992	1207.2239786371
75	204037	3101.01936354651	449.35263409541
75	216915	3300.38670991998	106.99667312661
75	232787	3553.21313040201	876.21170648187
76	22607	265.54476838988	249.44461760622
76	33504	441.96722457584	691.93957426109
76	44790	629.45000715011	85.114895796827
76	56570	811.73910321467	213.30982540533
76	68676	1003.34645323816	454.30228925663
76	81517	1208.7714280107	634.35726332273
76	93583	1396.2295634189	1542.7680347091
76	106966	1601.35150283863	1268.5200157662
76	118128	1776.29707456366	2359.2908769781
76	130758	1971.85673641812	945.03092879032
76	143186	2175.83373285126	443.76246175407
76	155348	2359.32030401193	826.02173619867
76	169268	2566.3933672118	1260.2746966188
76	181342	2746.73333554365	2097.9531469135
76	193923	2946.8838687442	1220.227498212
76	205834	3123.38683315852	63.680975705596
76	217393	3304.27601467455	1346.2346901106
76	231629	3520.19790222057	1498.8170476355
77	23056	272.13782481463	296.2737641796
77	35643	468.16453792598	74.267169034625
77	47113	655.25432871903	217.894312874
77	60140	868.69596749784	15.084487163375
77	73787	1107.02327567421	481.42071059086
77	85700	1279.16625949146	760.72889943603
77	97150	1455.21321576701	1692.9169029963
77	108722	1628.79898171378	850.77343028182
77	121661	1833.76991120439	637.42311569564
77	133746	2010.27132113934	1694.3560062819
77	143504	2182.82232028072	1641.1710444858
77	157587	2391.83463714481	519.07650586744
77	170365	2593.92134938312	1310.4237971676
77	183024	2785.60133850842	22.402546161883
77	195291	2978.41877247752	631.00507864192
77	208440	3180.197180554	697.29450173012
77	221075	3367.10658170438	215.8757096195
77	232447	3546.09080596182	849.82131757943
78	23473	277.53360568101	1180.8413916234
78	35983	475.94844953209	504.22192845646
78	47801	662.41090880112	317.56991462873
78	59985	865.75541008192	241.67824676419
78	71556	1053.59138439602	1507.1167159079
78	83771	1243.92270744436	762.7471481317
78	95104	1418.77747940222	774.87389319984
78	107967	1619.13995546518	426.48355973764
78	122578	1851.91212534683	388.71530385783
78	136640	2068.62904568659	423.06469727677
78	149321	2265.13242140381	98.301643246906
78	161926	2458.26429921311	30.550774199135
78	176955	2686.717528867	358.37447745829
78	189110	2876.00381542496	3136.0847059229
78	202303	3078.76028762086	143.09978000523
78	215587	3287.24711483934	146.52964500058
78	227448	3477.73152958476	1490.455036082
79	23900	322.61564413756	1389.4794295542
79	36321	498.05161208871	89.860729250602
79	48866	705.17551591316	1104.8891685827
79	61040	901.88298260991	598.68221699158
79	75780	1129.47719522162	44.916512494861
79	87852	1317.03520661986	613.31800812793
79	99953	1507.55412799722	1014.4808968538
79	113746	1712.92370685534	566.20704365444
79	125859	1898.47544274493	126.40896091669
79	137886	2082.36732141673	746.41611682952
79	150748	2281.07929984611	1917.5263115171
79	164496	2482.66059026118	313.76721636854
79	175634	2667.32285040205	1484.7176737199
79	187281	2857.94942839402	161.44112263442
79	199113	3048.17389772435	166.5255487268
79	213743	3265.62706950201	879.64726211336
79	230817	3516.07218965603	422.48053743565

