version 3
run N75-8-20260518-02:27:04-159888
attr configname N75
attr datetime 20260518-02:27:04
attr datetimef 20260518-022704
attr experiment N75
attr inifile omnetpp.ini
attr iterationvars "$0=\"avg\""
attr iterationvarsd avg
attr iterationvarsf avg-
attr measurement "$0=\"avg\""
attr network test2.LoRaNetworkTest
attr processid 159888
attr repetition 8
attr replication #8
attr resultdir results
attr runnumber 8
attr seedset 8
config extends General
config **.numPatients 75
config network test2.LoRaNetworkTest
config sim-time-limit 1h
config warmup-period 60s
config simtime-resolution -11
config repeat 30
config rng-class cMersenneTwister
config record-eventlog false
config **.numPatients 20
config **.HospitalServer.app[0].queueLength:vector.vector-recording true
config **.HospitalServer.app[0].urgentWaitTime:vector.vector-recording true
config **.HospitalServer.app[0].normalWaitTime:vector.vector-recording true
config **.HospitalServer.app[0].urgentEndToEndDelay:vector.vector-recording true
config **.HospitalServer.app[0].normalEndToEndDelay:vector.vector-recording true
config **.loRaNodes[*].app[0].emergencyVariate:vector.vector-recording true
config **.vector-recording false
config **.loRaNodes[0].**.initialX "300m + uniform(-10m, 10m)"
config **.loRaNodes[0].**.initialY "250m + uniform(-8m, 8m)"
config **.loRaNodes[1].**.initialX "450m + uniform(-10m, 10m)"
config **.loRaNodes[1].**.initialY "250m + uniform(-8m, 8m)"
config **.loRaNodes[2].**.initialX "600m + uniform(-10m, 10m)"
config **.loRaNodes[2].**.initialY "250m + uniform(-8m, 8m)"
config **.loRaNodes[3].**.initialX "750m + uniform(-10m, 10m)"
config **.loRaNodes[3].**.initialY "250m + uniform(-8m, 8m)"
config **.loRaNodes[4].**.initialX "900m + uniform(-10m, 10m)"
config **.loRaNodes[4].**.initialY "250m + uniform(-8m, 8m)"
config **.loRaNodes[5].**.initialX "1050m + uniform(-10m, 10m)"
config **.loRaNodes[5].**.initialY "250m + uniform(-8m, 8m)"
config **.loRaNodes[6].**.initialX "1200m + uniform(-10m, 10m)"
config **.loRaNodes[6].**.initialY "250m + uniform(-8m, 8m)"
config **.loRaNodes[7].**.initialX "1350m + uniform(-10m, 10m)"
config **.loRaNodes[7].**.initialY "250m + uniform(-8m, 8m)"
config **.loRaNodes[8].**.initialX "1500m + uniform(-10m, 10m)"
config **.loRaNodes[8].**.initialY "250m + uniform(-8m, 8m)"
config **.loRaNodes[9].**.initialX "1650m + uniform(-10m, 10m)"
config **.loRaNodes[9].**.initialY "250m + uniform(-8m, 8m)"
config **.loRaNodes[10].**.initialX "300m + uniform(-10m, 10m)"
config **.loRaNodes[10].**.initialY "370m + uniform(-8m, 8m)"
config **.loRaNodes[11].**.initialX "450m + uniform(-10m, 10m)"
config **.loRaNodes[11].**.initialY "370m + uniform(-8m, 8m)"
config **.loRaNodes[12].**.initialX "600m + uniform(-10m, 10m)"
config **.loRaNodes[12].**.initialY "370m + uniform(-8m, 8m)"
config **.loRaNodes[13].**.initialX "750m + uniform(-10m, 10m)"
config **.loRaNodes[13].**.initialY "370m + uniform(-8m, 8m)"
config **.loRaNodes[14].**.initialX "900m + uniform(-10m, 10m)"
config **.loRaNodes[14].**.initialY "370m + uniform(-8m, 8m)"
config **.loRaNodes[15].**.initialX "1050m + uniform(-10m, 10m)"
config **.loRaNodes[15].**.initialY "370m + uniform(-8m, 8m)"
config **.loRaNodes[16].**.initialX "1200m + uniform(-10m, 10m)"
config **.loRaNodes[16].**.initialY "370m + uniform(-8m, 8m)"
config **.loRaNodes[17].**.initialX "1350m + uniform(-10m, 10m)"
config **.loRaNodes[17].**.initialY "370m + uniform(-8m, 8m)"
config **.loRaNodes[18].**.initialX "1500m + uniform(-10m, 10m)"
config **.loRaNodes[18].**.initialY "370m + uniform(-8m, 8m)"
config **.loRaNodes[19].**.initialX "1650m + uniform(-10m, 10m)"
config **.loRaNodes[19].**.initialY "370m + uniform(-8m, 8m)"
config **.loRaNodes[20].**.initialX "300m + uniform(-10m, 10m)"
config **.loRaNodes[20].**.initialY "490m + uniform(-8m, 8m)"
config **.loRaNodes[21].**.initialX "450m + uniform(-10m, 10m)"
config **.loRaNodes[21].**.initialY "490m + uniform(-8m, 8m)"
config **.loRaNodes[22].**.initialX "600m + uniform(-10m, 10m)"
config **.loRaNodes[22].**.initialY "490m + uniform(-8m, 8m)"
config **.loRaNodes[23].**.initialX "750m + uniform(-10m, 10m)"
config **.loRaNodes[23].**.initialY "490m + uniform(-8m, 8m)"
config **.loRaNodes[24].**.initialX "900m + uniform(-10m, 10m)"
config **.loRaNodes[24].**.initialY "490m + uniform(-8m, 8m)"
config **.loRaNodes[25].**.initialX "1050m + uniform(-10m, 10m)"
config **.loRaNodes[25].**.initialY "490m + uniform(-8m, 8m)"
config **.loRaNodes[26].**.initialX "1200m + uniform(-10m, 10m)"
config **.loRaNodes[26].**.initialY "490m + uniform(-8m, 8m)"
config **.loRaNodes[27].**.initialX "1350m + uniform(-10m, 10m)"
config **.loRaNodes[27].**.initialY "490m + uniform(-8m, 8m)"
config **.loRaNodes[28].**.initialX "1500m + uniform(-10m, 10m)"
config **.loRaNodes[28].**.initialY "490m + uniform(-8m, 8m)"
config **.loRaNodes[29].**.initialX "1650m + uniform(-10m, 10m)"
config **.loRaNodes[29].**.initialY "490m + uniform(-8m, 8m)"
config **.loRaNodes[30].**.initialX "300m + uniform(-10m, 10m)"
config **.loRaNodes[30].**.initialY "610m + uniform(-8m, 8m)"
config **.loRaNodes[31].**.initialX "450m + uniform(-10m, 10m)"
config **.loRaNodes[31].**.initialY "610m + uniform(-8m, 8m)"
config **.loRaNodes[32].**.initialX "600m + uniform(-10m, 10m)"
config **.loRaNodes[32].**.initialY "610m + uniform(-8m, 8m)"
config **.loRaNodes[33].**.initialX "750m + uniform(-10m, 10m)"
config **.loRaNodes[33].**.initialY "610m + uniform(-8m, 8m)"
config **.loRaNodes[34].**.initialX "900m + uniform(-10m, 10m)"
config **.loRaNodes[34].**.initialY "610m + uniform(-8m, 8m)"
config **.loRaNodes[35].**.initialX "1050m + uniform(-10m, 10m)"
config **.loRaNodes[35].**.initialY "610m + uniform(-8m, 8m)"
config **.loRaNodes[36].**.initialX "1200m + uniform(-10m, 10m)"
config **.loRaNodes[36].**.initialY "610m + uniform(-8m, 8m)"
config **.loRaNodes[37].**.initialX "1350m + uniform(-10m, 10m)"
config **.loRaNodes[37].**.initialY "610m + uniform(-8m, 8m)"
config **.loRaNodes[38].**.initialX "1500m + uniform(-10m, 10m)"
config **.loRaNodes[38].**.initialY "610m + uniform(-8m, 8m)"
config **.loRaNodes[39].**.initialX "1650m + uniform(-10m, 10m)"
config **.loRaNodes[39].**.initialY "610m + uniform(-8m, 8m)"
config **.loRaNodes[40].**.initialX "300m + uniform(-10m, 10m)"
config **.loRaNodes[40].**.initialY "730m + uniform(-8m, 8m)"
config **.loRaNodes[41].**.initialX "450m + uniform(-10m, 10m)"
config **.loRaNodes[41].**.initialY "730m + uniform(-8m, 8m)"
config **.loRaNodes[42].**.initialX "600m + uniform(-10m, 10m)"
config **.loRaNodes[42].**.initialY "730m + uniform(-8m, 8m)"
config **.loRaNodes[43].**.initialX "750m + uniform(-10m, 10m)"
config **.loRaNodes[43].**.initialY "730m + uniform(-8m, 8m)"
config **.loRaNodes[44].**.initialX "900m + uniform(-10m, 10m)"
config **.loRaNodes[44].**.initialY "730m + uniform(-8m, 8m)"
config **.loRaNodes[45].**.initialX "1050m + uniform(-10m, 10m)"
config **.loRaNodes[45].**.initialY "730m + uniform(-8m, 8m)"
config **.loRaNodes[46].**.initialX "1200m + uniform(-10m, 10m)"
config **.loRaNodes[46].**.initialY "730m + uniform(-8m, 8m)"
config **.loRaNodes[47].**.initialX "1350m + uniform(-10m, 10m)"
config **.loRaNodes[47].**.initialY "730m + uniform(-8m, 8m)"
config **.loRaNodes[48].**.initialX "1500m + uniform(-10m, 10m)"
config **.loRaNodes[48].**.initialY "730m + uniform(-8m, 8m)"
config **.loRaNodes[49].**.initialX "1650m + uniform(-10m, 10m)"
config **.loRaNodes[49].**.initialY "730m + uniform(-8m, 8m)"
config **.loRaNodes[50].**.initialX "300m + uniform(-10m, 10m)"
config **.loRaNodes[50].**.initialY "850m + uniform(-8m, 8m)"
config **.loRaNodes[51].**.initialX "450m + uniform(-10m, 10m)"
config **.loRaNodes[51].**.initialY "850m + uniform(-8m, 8m)"
config **.loRaNodes[52].**.initialX "600m + uniform(-10m, 10m)"
config **.loRaNodes[52].**.initialY "850m + uniform(-8m, 8m)"
config **.loRaNodes[53].**.initialX "750m + uniform(-10m, 10m)"
config **.loRaNodes[53].**.initialY "850m + uniform(-8m, 8m)"
config **.loRaNodes[54].**.initialX "900m + uniform(-10m, 10m)"
config **.loRaNodes[54].**.initialY "850m + uniform(-8m, 8m)"
config **.loRaNodes[55].**.initialX "1050m + uniform(-10m, 10m)"
config **.loRaNodes[55].**.initialY "850m + uniform(-8m, 8m)"
config **.loRaNodes[56].**.initialX "1200m + uniform(-10m, 10m)"
config **.loRaNodes[56].**.initialY "850m + uniform(-8m, 8m)"
config **.loRaNodes[57].**.initialX "1350m + uniform(-10m, 10m)"
config **.loRaNodes[57].**.initialY "850m + uniform(-8m, 8m)"
config **.loRaNodes[58].**.initialX "1500m + uniform(-10m, 10m)"
config **.loRaNodes[58].**.initialY "850m + uniform(-8m, 8m)"
config **.loRaNodes[59].**.initialX "1650m + uniform(-10m, 10m)"
config **.loRaNodes[59].**.initialY "850m + uniform(-8m, 8m)"
config **.loRaNodes[60].**.initialX "300m + uniform(-10m, 10m)"
config **.loRaNodes[60].**.initialY "970m + uniform(-8m, 8m)"
config **.loRaNodes[61].**.initialX "450m + uniform(-10m, 10m)"
config **.loRaNodes[61].**.initialY "970m + uniform(-8m, 8m)"
config **.loRaNodes[62].**.initialX "600m + uniform(-10m, 10m)"
config **.loRaNodes[62].**.initialY "970m + uniform(-8m, 8m)"
config **.loRaNodes[63].**.initialX "750m + uniform(-10m, 10m)"
config **.loRaNodes[63].**.initialY "970m + uniform(-8m, 8m)"
config **.loRaNodes[64].**.initialX "900m + uniform(-10m, 10m)"
config **.loRaNodes[64].**.initialY "970m + uniform(-8m, 8m)"
config **.loRaNodes[65].**.initialX "1050m + uniform(-10m, 10m)"
config **.loRaNodes[65].**.initialY "970m + uniform(-8m, 8m)"
config **.loRaNodes[66].**.initialX "1200m + uniform(-10m, 10m)"
config **.loRaNodes[66].**.initialY "970m + uniform(-8m, 8m)"
config **.loRaNodes[67].**.initialX "1350m + uniform(-10m, 10m)"
config **.loRaNodes[67].**.initialY "970m + uniform(-8m, 8m)"
config **.loRaNodes[68].**.initialX "1500m + uniform(-10m, 10m)"
config **.loRaNodes[68].**.initialY "970m + uniform(-8m, 8m)"
config **.loRaNodes[69].**.initialX "1650m + uniform(-10m, 10m)"
config **.loRaNodes[69].**.initialY "970m + uniform(-8m, 8m)"
config **.loRaNodes[70].**.initialX "300m + uniform(-10m, 10m)"
config **.loRaNodes[70].**.initialY "1090m + uniform(-8m, 8m)"
config **.loRaNodes[71].**.initialX "450m + uniform(-10m, 10m)"
config **.loRaNodes[71].**.initialY "1090m + uniform(-8m, 8m)"
config **.loRaNodes[72].**.initialX "600m + uniform(-10m, 10m)"
config **.loRaNodes[72].**.initialY "1090m + uniform(-8m, 8m)"
config **.loRaNodes[73].**.initialX "750m + uniform(-10m, 10m)"
config **.loRaNodes[73].**.initialY "1090m + uniform(-8m, 8m)"
config **.loRaNodes[74].**.initialX "900m + uniform(-10m, 10m)"
config **.loRaNodes[74].**.initialY "1090m + uniform(-8m, 8m)"
config **.HospitalServer.numApps 1
config **.HospitalServer.app[0].typename HospitalServerApp
config **.HospitalServer.app[0].destPort 2000
config **.HospitalServer.app[0].localPort 1000
config **.HospitalServer.app[0].adrMethod "\"avg\""
config **.HospitalServer.**.evaluateADRinServer true
config **.HospitalServer.app[0].queueSize 50
config **.HospitalServer.app[0].expo_rate_lambda 0.83
config **.loRaGateway.numUdpApps 1
config **.loRaGateway.packetForwarder.localPort 2000
config **.loRaGateway.packetForwarder.destPort 1000
config **.loRaGateway.packetForwarder.destAddresses "\"HospitalServer\""
config **.loRaGateway.**.initFromDisplayString false
config **.loRaGateway.**.initialX 544.00m
config **.loRaGateway.**.initialY 544.00m
config **.loRaNodes[*].numApps 1
config **.loRaNodes[*].app[0].typename PatientSensorApp
config **.loRaNodes[*].app[0].expo_rate_lambda 0.00175
config **.loRaNodes[*].app[0].emergencyThreshold 50
config **.loRaNodes[*].**.timeToFirstPacket exponential(24s)
config **.loRaNodes[*].**.timeToNextPacket exponential(24s)
config **.loRaNodes[*].**.numberOfPacketsToSend 0
config **.loRaNodes[*].**initialLoRaSF 12
config **.loRaNodes[*].**initialLoRaTP 14dBm
config **.loRaNodes[*].**initialLoRaBW "125 kHz"
config **.loRaNodes[*].**initialLoRaCR 4
config **.loRaNodes[*].**.initFromDisplayString false
config **.loRaNodes[*].**.evaluateADRinNode true
config **.loRaNodes[*].LoRaNic.radio.energyConsumer.typename LoRaEnergyConsumer
config **.loRaNodes[*].**.energySourceModule "\"^.IdealEpEnergyStorage\""
config **.loRaNodes[*].LoRaNic.radio.energyConsumer.configFile "xmldoc(\"energyConsumptionParam.xml\")"
config **.maxTransmissionDuration 4s
config **.energyDetection -110dBm
config **.radio.radioMediumModule "\"LoRaMedium\""
config **.minInterferenceTime 0s
config **.constraintAreaMinX 0m
config **.constraintAreaMinY 0m
config **.constraintAreaMinZ 0m
config **.constraintAreaMaxZ 0m
config **.constraintAreaMaxX 3000.0m
config **.constraintAreaMaxY 3000.0m

vector 0 LoRaNetworkTest.loRaNodes[60].app[0] emergencyVariate:vector ETV
attr recordingmode vector
attr title "Exponential variate samples"
vector 1 LoRaNetworkTest.HospitalServer.app[0] queueLength:vector ETV
attr recordingmode vector
attr title "Total queue length"
vector 2 LoRaNetworkTest.HospitalServer.app[0] normalWaitTime:vector ETV
attr recordingmode vector
attr title "Normal wait time (s)"
vector 3 LoRaNetworkTest.HospitalServer.app[0] normalEndToEndDelay:vector ETV
attr recordingmode vector
attr title "Normal end-to-end delay (s)"
vector 4 LoRaNetworkTest.loRaNodes[72].app[0] emergencyVariate:vector ETV
attr recordingmode vector
attr title "Exponential variate samples"
vector 5 LoRaNetworkTest.loRaNodes[69].app[0] emergencyVariate:vector ETV
attr recordingmode vector
attr title "Exponential variate samples"
vector 6 LoRaNetworkTest.loRaNodes[0].app[0] emergencyVariate:vector ETV
attr recordingmode vector
attr title "Exponential variate samples"
vector 7 LoRaNetworkTest.loRaNodes[42].app[0] emergencyVariate:vector ETV
attr recordingmode vector
attr title "Exponential variate samples"
vector 8 LoRaNetworkTest.loRaNodes[45].app[0] emergencyVariate:vector ETV
attr recordingmode vector
attr title "Exponential variate samples"
vector 9 LoRaNetworkTest.loRaNodes[57].app[0] emergencyVariate:vector ETV
attr recordingmode vector
attr title "Exponential variate samples"
vector 10 LoRaNetworkTest.loRaNodes[36].app[0] emergencyVariate:vector ETV
attr recordingmode vector
attr title "Exponential variate samples"
vector 11 LoRaNetworkTest.loRaNodes[66].app[0] emergencyVariate:vector ETV
attr recordingmode vector
attr title "Exponential variate samples"
vector 12 LoRaNetworkTest.loRaNodes[13].app[0] emergencyVariate:vector ETV
attr recordingmode vector
attr title "Exponential variate samples"
vector 13 LoRaNetworkTest.loRaNodes[62].app[0] emergencyVariate:vector ETV
attr recordingmode vector
attr title "Exponential variate samples"
vector 14 LoRaNetworkTest.loRaNodes[29].app[0] emergencyVariate:vector ETV
attr recordingmode vector
attr title "Exponential variate samples"
vector 15 LoRaNetworkTest.loRaNodes[54].app[0] emergencyVariate:vector ETV
attr recordingmode vector
attr title "Exponential variate samples"
vector 16 LoRaNetworkTest.loRaNodes[27].app[0] emergencyVariate:vector ETV
attr recordingmode vector
attr title "Exponential variate samples"
vector 17 LoRaNetworkTest.loRaNodes[37].app[0] emergencyVariate:vector ETV
attr recordingmode vector
attr title "Exponential variate samples"
vector 18 LoRaNetworkTest.loRaNodes[3].app[0] emergencyVariate:vector ETV
attr recordingmode vector
attr title "Exponential variate samples"
vector 19 LoRaNetworkTest.loRaNodes[22].app[0] emergencyVariate:vector ETV
attr recordingmode vector
attr title "Exponential variate samples"
vector 20 LoRaNetworkTest.loRaNodes[20].app[0] emergencyVariate:vector ETV
attr recordingmode vector
attr title "Exponential variate samples"
vector 21 LoRaNetworkTest.HospitalServer.app[0] urgentWaitTime:vector ETV
attr recordingmode vector
attr title "Urgent wait time (s)"
vector 22 LoRaNetworkTest.HospitalServer.app[0] urgentEndToEndDelay:vector ETV
attr recordingmode vector
attr title "Urgent end-to-end delay (s)"
vector 23 LoRaNetworkTest.loRaNodes[33].app[0] emergencyVariate:vector ETV
attr recordingmode vector
attr title "Exponential variate samples"
vector 24 LoRaNetworkTest.loRaNodes[48].app[0] emergencyVariate:vector ETV
attr recordingmode vector
attr title "Exponential variate samples"
vector 25 LoRaNetworkTest.loRaNodes[21].app[0] emergencyVariate:vector ETV
attr recordingmode vector
attr title "Exponential variate samples"
vector 26 LoRaNetworkTest.loRaNodes[38].app[0] emergencyVariate:vector ETV
attr recordingmode vector
attr title "Exponential variate samples"
vector 27 LoRaNetworkTest.loRaNodes[11].app[0] emergencyVariate:vector ETV
attr recordingmode vector
attr title "Exponential variate samples"
vector 28 LoRaNetworkTest.loRaNodes[17].app[0] emergencyVariate:vector ETV
attr recordingmode vector
attr title "Exponential variate samples"
vector 29 LoRaNetworkTest.loRaNodes[25].app[0] emergencyVariate:vector ETV
attr recordingmode vector
attr title "Exponential variate samples"
vector 30 LoRaNetworkTest.loRaNodes[15].app[0] emergencyVariate:vector ETV
attr recordingmode vector
attr title "Exponential variate samples"
vector 31 LoRaNetworkTest.loRaNodes[19].app[0] emergencyVariate:vector ETV
attr recordingmode vector
attr title "Exponential variate samples"
vector 32 LoRaNetworkTest.loRaNodes[39].app[0] emergencyVariate:vector ETV
attr recordingmode vector
attr title "Exponential variate samples"
vector 33 LoRaNetworkTest.loRaNodes[18].app[0] emergencyVariate:vector ETV
attr recordingmode vector
attr title "Exponential variate samples"
vector 34 LoRaNetworkTest.loRaNodes[41].app[0] emergencyVariate:vector ETV
attr recordingmode vector
attr title "Exponential variate samples"
vector 35 LoRaNetworkTest.loRaNodes[58].app[0] emergencyVariate:vector ETV
attr recordingmode vector
attr title "Exponential variate samples"
vector 36 LoRaNetworkTest.loRaNodes[32].app[0] emergencyVariate:vector ETV
attr recordingmode vector
attr title "Exponential variate samples"
vector 37 LoRaNetworkTest.loRaNodes[12].app[0] emergencyVariate:vector ETV
attr recordingmode vector
attr title "Exponential variate samples"
vector 38 LoRaNetworkTest.loRaNodes[8].app[0] emergencyVariate:vector ETV
attr recordingmode vector
attr title "Exponential variate samples"
vector 39 LoRaNetworkTest.loRaNodes[68].app[0] emergencyVariate:vector ETV
attr recordingmode vector
attr title "Exponential variate samples"
vector 40 LoRaNetworkTest.loRaNodes[5].app[0] emergencyVariate:vector ETV
attr recordingmode vector
attr title "Exponential variate samples"
vector 41 LoRaNetworkTest.loRaNodes[67].app[0] emergencyVariate:vector ETV
attr recordingmode vector
attr title "Exponential variate samples"
vector 42 LoRaNetworkTest.loRaNodes[51].app[0] emergencyVariate:vector ETV
attr recordingmode vector
attr title "Exponential variate samples"
vector 43 LoRaNetworkTest.loRaNodes[1].app[0] emergencyVariate:vector ETV
attr recordingmode vector
attr title "Exponential variate samples"
vector 44 LoRaNetworkTest.loRaNodes[23].app[0] emergencyVariate:vector ETV
attr recordingmode vector
attr title "Exponential variate samples"
vector 45 LoRaNetworkTest.loRaNodes[43].app[0] emergencyVariate:vector ETV
attr recordingmode vector
attr title "Exponential variate samples"
vector 46 LoRaNetworkTest.loRaNodes[34].app[0] emergencyVariate:vector ETV
attr recordingmode vector
attr title "Exponential variate samples"
vector 47 LoRaNetworkTest.loRaNodes[64].app[0] emergencyVariate:vector ETV
attr recordingmode vector
attr title "Exponential variate samples"
vector 48 LoRaNetworkTest.loRaNodes[4].app[0] emergencyVariate:vector ETV
attr recordingmode vector
attr title "Exponential variate samples"
vector 49 LoRaNetworkTest.loRaNodes[47].app[0] emergencyVariate:vector ETV
attr recordingmode vector
attr title "Exponential variate samples"
vector 50 LoRaNetworkTest.loRaNodes[35].app[0] emergencyVariate:vector ETV
attr recordingmode vector
attr title "Exponential variate samples"
vector 51 LoRaNetworkTest.loRaNodes[9].app[0] emergencyVariate:vector ETV
attr recordingmode vector
attr title "Exponential variate samples"
vector 52 LoRaNetworkTest.loRaNodes[6].app[0] emergencyVariate:vector ETV
attr recordingmode vector
attr title "Exponential variate samples"
vector 53 LoRaNetworkTest.loRaNodes[65].app[0] emergencyVariate:vector ETV
attr recordingmode vector
attr title "Exponential variate samples"
vector 54 LoRaNetworkTest.loRaNodes[74].app[0] emergencyVariate:vector ETV
attr recordingmode vector
attr title "Exponential variate samples"
vector 55 LoRaNetworkTest.loRaNodes[52].app[0] emergencyVariate:vector ETV
attr recordingmode vector
attr title "Exponential variate samples"
vector 56 LoRaNetworkTest.loRaNodes[44].app[0] emergencyVariate:vector ETV
attr recordingmode vector
attr title "Exponential variate samples"
vector 57 LoRaNetworkTest.loRaNodes[28].app[0] emergencyVariate:vector ETV
attr recordingmode vector
attr title "Exponential variate samples"
vector 58 LoRaNetworkTest.loRaNodes[73].app[0] emergencyVariate:vector ETV
attr recordingmode vector
attr title "Exponential variate samples"
vector 59 LoRaNetworkTest.loRaNodes[63].app[0] emergencyVariate:vector ETV
attr recordingmode vector
attr title "Exponential variate samples"
vector 60 LoRaNetworkTest.loRaNodes[31].app[0] emergencyVariate:vector ETV
attr recordingmode vector
attr title "Exponential variate samples"
vector 61 LoRaNetworkTest.loRaNodes[49].app[0] emergencyVariate:vector ETV
attr recordingmode vector
attr title "Exponential variate samples"
vector 62 LoRaNetworkTest.loRaNodes[10].app[0] emergencyVariate:vector ETV
attr recordingmode vector
attr title "Exponential variate samples"
vector 63 LoRaNetworkTest.loRaNodes[2].app[0] emergencyVariate:vector ETV
attr recordingmode vector
attr title "Exponential variate samples"
vector 64 LoRaNetworkTest.loRaNodes[26].app[0] emergencyVariate:vector ETV
attr recordingmode vector
attr title "Exponential variate samples"
vector 65 LoRaNetworkTest.loRaNodes[53].app[0] emergencyVariate:vector ETV
attr recordingmode vector
attr title "Exponential variate samples"
vector 66 LoRaNetworkTest.loRaNodes[30].app[0] emergencyVariate:vector ETV
attr recordingmode vector
attr title "Exponential variate samples"
vector 67 LoRaNetworkTest.loRaNodes[55].app[0] emergencyVariate:vector ETV
attr recordingmode vector
attr title "Exponential variate samples"
vector 68 LoRaNetworkTest.loRaNodes[70].app[0] emergencyVariate:vector ETV
attr recordingmode vector
attr title "Exponential variate samples"
vector 69 LoRaNetworkTest.loRaNodes[14].app[0] emergencyVariate:vector ETV
attr recordingmode vector
attr title "Exponential variate samples"
vector 70 LoRaNetworkTest.loRaNodes[7].app[0] emergencyVariate:vector ETV
attr recordingmode vector
attr title "Exponential variate samples"
vector 71 LoRaNetworkTest.loRaNodes[16].app[0] emergencyVariate:vector ETV
attr recordingmode vector
attr title "Exponential variate samples"
vector 72 LoRaNetworkTest.loRaNodes[71].app[0] emergencyVariate:vector ETV
attr recordingmode vector
attr title "Exponential variate samples"
vector 73 LoRaNetworkTest.loRaNodes[61].app[0] emergencyVariate:vector ETV
attr recordingmode vector
attr title "Exponential variate samples"
vector 74 LoRaNetworkTest.loRaNodes[50].app[0] emergencyVariate:vector ETV
attr recordingmode vector
attr title "Exponential variate samples"
vector 75 LoRaNetworkTest.loRaNodes[56].app[0] emergencyVariate:vector ETV
attr recordingmode vector
attr title "Exponential variate samples"
vector 76 LoRaNetworkTest.loRaNodes[46].app[0] emergencyVariate:vector ETV
attr recordingmode vector
attr title "Exponential variate samples"
vector 77 LoRaNetworkTest.loRaNodes[40].app[0] emergencyVariate:vector ETV
attr recordingmode vector
attr title "Exponential variate samples"
vector 78 LoRaNetworkTest.loRaNodes[24].app[0] emergencyVariate:vector ETV
attr recordingmode vector
attr title "Exponential variate samples"
vector 79 LoRaNetworkTest.loRaNodes[59].app[0] emergencyVariate:vector ETV
attr recordingmode vector
attr title "Exponential variate samples"
0	11617	62.08038087965	280.25313105102
0	21016	234.81080443282	387.46161991585
0	31632	417.15290757133	1358.7195889866
0	41534	593.06325311762	93.469773087477
0	57202	823.04407477322	295.84049207803
0	72465	1065.37376289354	433.42573827151
0	85755	1261.53736911598	1905.2099212241
0	100260	1486.65125425519	225.66315558437
0	111442	1662.16350261708	472.62437044792
0	124129	1853.59242298913	1225.1653981151
0	136981	2051.73729520781	466.8237788606
0	148660	2230.51765661755	62.981101535024
0	165447	2504.30518012334	1028.6155128297
0	176907	2683.09604910297	309.16837062319
0	190035	2875.721519195	23.759726215797
0	205802	3100.29328313309	1281.0499491063
0	217178	3276.88263557052	68.760002121593
0	230172	3475.72103861617	843.7566048077
1	11760	63.79251192429	1
1	11760	63.79251192429	0
1	12251	109.81591484717	1
1	12251	109.81591484717	0
1	12578	181.57798757941	1
1	12578	181.57798757941	0
1	13438	187.2464440633	1
1	13438	187.2464440633	0
1	13884	190.30068708767	1
1	13884	190.30068708767	0
1	14503	193.91617130035	1
1	14503	193.91617130035	0
1	15157	196.80799417053	1
1	15157	196.80799417053	0
1	15582	198.71305890774	1
1	15582	198.71305890774	0
1	17360	209.21852282901	1
1	17360	209.21852282901	0
1	18942	221.16456591524	1
1	18942	221.16456591524	0
1	19988	225.07470826157	1
1	19988	225.07470826157	0
1	20507	229.31680855388	1
1	20507	229.31680855388	0
1	20880	231.67858797995	1
1	20880	231.67858797995	0
1	21386	239.83201383327	1
1	21386	239.83201383327	0
1	22127	249.41827322817	1
1	22127	249.41827322817	0
1	22351	253.48498828222	1
1	22351	253.48498828222	0
1	22843	267.26660013435	1
1	22843	267.26660013435	0
1	23636	275.62370515929	1
1	23636	275.62370515929	0
1	24285	289.39854492038	1
1	24285	289.39854492038	0
1	24694	321.2056159408	1
1	24694	321.2056159408	0
1	25153	366.77923094576	1
1	25153	366.77923094576	0
1	25563	371.52207974418	1
1	25563	371.52207974418	0
1	27020	387.29091351493	1
1	27020	387.29091351493	0
1	27526	391.26795744068	1
1	27526	391.26795744068	0
1	28175	395.28764460448	1
1	28175	395.28764460448	0
1	29101	400.20287682279	1
1	29101	400.20287682279	0
1	30142	404.77458667391	1
1	30142	404.77458667391	0
1	30411	406.82945012171	1
1	30411	406.82945012171	0
1	30663	408.82087845177	1
1	30663	408.82087845177	0
1	31000	410.61020542373	1
1	31123	411.46296781595	0
1	31526	415.89685563884	1
1	31526	415.89685563884	0
1	32032	419.72392200686	1
1	32032	419.72392200686	0
1	32276	423.51775613382	1
1	32276	423.51775613382	0
1	32483	426.47166564264	1
1	32483	426.47166564264	0
1	33990	438.15213075822	1
1	33990	438.15213075822	0
1	34559	445.25383740569	1
1	34559	445.25383740569	0
1	35130	462.75833025297	1
1	35130	462.75833025297	0
1	35442	469.63414572288	1
1	35442	469.63414572288	0
1	35773	472.23356474948	1
1	35773	472.23356474948	0
1	36625	490.03510207475	1
1	36625	490.03510207475	0
1	36973	513.34519844793	1
1	36973	513.34519844793	0
1	37160	530.98927899784	1
1	37160	530.98927899784	0
1	37457	543.46984200822	1
1	37457	543.46984200822	0
1	37795	552.2435712473	1
1	37795	552.2435712473	0
1	38082	559.78161155868	1
1	38082	559.78161155868	0
1	38779	565.28368438191	1
1	38779	565.28368438191	0
1	39326	567.82207175414	1
1	39326	567.82207175414	0
1	40069	575.54172963168	1
1	40069	575.54172963168	0
1	40642	580.90810959845	1
1	40642	580.90810959845	0
1	41293	585.29911876898	1
1	41429	589.07904719354	0
1	41486	589.94828816368	1
1	41528	590.09959482562	0
1	41757	594.77538416226	1
1	41757	594.77538416226	0
1	42088	597.13001949481	1
1	42088	597.13001949481	0
1	42842	602.69947289342	1
1	42842	602.69947289342	0
1	43356	605.28927218096	1
1	43356	605.28927218096	0
1	43749	610.14347704743	1
1	43749	610.14347704743	0
1	44038	612.10796262266	1
1	44038	612.10796262266	0
1	44368	617.61687728293	1
1	44368	617.61687728293	0
1	44630	625.69822962974	1
1	44630	625.69822962974	0
1	45026	631.08517190221	1
1	45026	631.08517190221	0
1	46448	642.36325312768	1
1	46448	642.36325312768	0
1	46994	652.38995012572	1
1	46994	652.38995012572	0
1	47344	657.5530026399	1
1	47344	657.5530026399	0
1	48666	680.14561902491	1
1	48666	680.14561902491	0
1	49039	705.1059646402	1
1	49039	705.1059646402	0
1	49569	724.06807131231	1
1	49569	724.06807131231	0
1	50014	734.00358564978	1
1	50014	734.00358564978	0
1	50888	745.30010500638	1
1	50888	745.30010500638	0
1	51240	748.1618726596	1
1	51240	748.1618726596	0
1	51891	757.83581848062	1
1	51891	757.83581848062	0
1	52386	760.81542215799	1
1	52386	760.81542215799	0
1	52985	765.36526651462	1
1	52985	765.36526651462	0
1	53417	774.07514684758	1
1	53417	774.07514684758	0
1	53970	778.24402807336	1
1	53970	778.24402807336	0
1	54254	780.24470598987	1
1	54254	780.24470598987	0
1	54510	782.88113500079	1
1	54536	783.78352486216	0
1	54916	787.6702913757	1
1	54916	787.6702913757	0
1	55346	790.40291970059	1
1	55346	790.40291970059	0
1	55697	800.11024802361	1
1	55697	800.11024802361	0
1	56336	812.87924221577	1
1	56336	812.87924221577	0
1	56600	815.79876625312	1
1	56600	815.79876625312	0
1	58030	826.65719095284	1
1	58030	826.65719095284	0
1	58456	831.78659218334	1
1	58456	831.78659218334	0
1	58838	835.02565726008	1
1	58838	835.02565726008	0
1	59272	841.00096536149	1
1	59272	841.00096536149	0
1	59548	843.34667872483	1
1	59653	849.94380061258	0
1	59872	855.39212718977	1
1	59872	855.39212718977	0
1	60873	879.48250821826	1
1	60873	879.48250821826	0
1	61182	898.53827390373	1
1	61182	898.53827390373	0
1	61439	901.80472602206	1
1	61439	901.80472602206	0
1	62037	912.20081573375	1
1	62037	912.20081573375	0
1	62462	921.13444455505	1
1	62462	921.13444455505	0
1	62981	928.89203558294	1
1	62981	928.89203558294	0
1	63601	937.12617828851	1
1	63601	937.12617828851	0
1	63975	938.92684204297	1
1	63975	938.92684204297	0
1	64211	942.89951829147	1
1	64211	942.89951829147	0
1	64932	951.31335825919	1
1	64932	951.31335825919	0
1	65151	953.37302684427	1
1	65151	953.37302684427	0
1	65589	956.02522521865	1
1	65589	956.02522521865	0
1	66064	957.92221803709	1
1	66064	957.92221803709	0
1	66256	959.61539212812	1
1	66256	959.61539212812	0
1	66614	963.43943341006	1
1	66614	963.43943341006	0
1	66790	972.08037043747	1
1	66790	972.08037043747	0
1	67058	979.68448070576	1
1	67058	979.68448070576	0
1	67613	986.55030396553	1
1	67613	986.55030396553	0
1	67917	989.9714555628	1
1	67917	989.9714555628	0
1	68727	998.02950814277	1
1	68727	998.02950814277	0
1	69197	1002.33766973931	1
1	69197	1002.33766973931	0
1	69645	1006.05555451242	1
1	69645	1006.05555451242	0
1	69983	1009.38021054812	1
1	69983	1009.38021054812	0
1	70732	1022.47152690489	1
1	70732	1022.47152690489	0
1	71215	1026.80426623971	1
1	71215	1026.80426623971	0
1	71536	1028.60089471638	1
1	71536	1028.60089471638	0
1	72681	1066.98047943435	1
1	72681	1066.98047943435	0
1	73024	1069.2048222091	1
1	73024	1069.2048222091	0
1	73508	1086.7793008685	1
1	73508	1086.7793008685	0
1	74030	1089.5690287589	1
1	74030	1089.5690287589	0
1	74466	1105.48680427437	1
1	74466	1105.48680427437	0
1	74915	1108.05432011235	1
1	74915	1108.05432011235	0
1	75413	1111.8486762663	1
1	75413	1111.8486762663	0
1	75817	1119.25482090046	1
1	75817	1119.25482090046	0
1	76065	1122.1762304021	1
1	76065	1122.1762304021	0
1	76653	1133.18138881097	1
1	76653	1133.18138881097	0
1	76838	1134.89641844131	1
1	76838	1134.89641844131	0
1	77266	1141.53597123071	1
1	77266	1141.53597123071	0
1	77502	1143.48455609699	1
1	77502	1143.48455609699	0
1	77687	1149.3086999247	1
1	77687	1149.3086999247	0
1	78109	1155.02053960722	1
1	78109	1155.02053960722	0
1	78446	1157.22103065551	1
1	78446	1157.22103065551	0
1	79175	1161.74329004539	1
1	79175	1161.74329004539	0
1	79404	1164.54603745469	1
1	79404	1164.54603745469	0
1	79974	1175.61613561277	1
1	79974	1175.61613561277	0
1	80713	1179.24809567633	1
1	80713	1179.24809567633	0
1	80963	1181.13731659966	1
1	80963	1181.13731659966	0
1	81563	1184.43868043322	1
1	81563	1184.43868043322	0
1	81958	1186.98741527003	1
1	81958	1186.98741527003	0
1	82410	1196.71845122098	1
1	82410	1196.71845122098	0
1	83106	1206.20990799059	1
1	83106	1206.20990799059	0
1	83445	1211.40302837392	1
1	83445	1211.40302837392	0
1	83622	1213.16737457876	1
1	83622	1213.16737457876	0
1	83940	1220.98844586265	1
1	83940	1220.98844586265	0
1	84537	1231.22228849795	1
1	84537	1231.22228849795	0
1	84806	1236.554601788	1
1	84806	1236.554601788	0
1	84986	1242.1901114104	1
1	84986	1242.1901114104	0
1	85298	1246.91885861186	1
1	85298	1246.91885861186	0
1	85653	1255.59568291664	1
1	85653	1255.59568291664	0
1	85973	1263.24950016062	1
1	85973	1263.24950016062	0
1	86296	1265.70789132534	1
1	86296	1265.70789132534	0
1	87081	1295.17479744265	1
1	87081	1295.17479744265	0
1	87494	1297.52313927831	1
1	87494	1297.52313927831	0
1	87958	1302.06746628155	1
1	87958	1302.06746628155	0
1	88304	1306.79974207341	1
1	88304	1306.79974207341	0
1	88512	1311.38182219752	1
1	88512	1311.38182219752	0
1	88783	1316.07123061479	1
1	88783	1316.07123061479	0
1	89030	1325.11331795732	1
1	89030	1325.11331795732	0
1	89200	1327.03298074771	1
1	89200	1327.03298074771	0
1	89448	1329.24136061846	1
1	89489	1329.8557620196	0
1	90091	1333.43421022563	1
1	90091	1333.43421022563	0
1	90760	1344.95320908923	1
1	90760	1344.95320908923	0
1	91178	1350.99309359988	1
1	91178	1350.99309359988	0
1	91875	1358.67078227739	1
1	91875	1358.67078227739	0
1	93044	1367.6645103963	1
1	93044	1367.6645103963	0
1	93386	1375.05522990173	1
1	93386	1375.05522990173	0
1	93771	1379.02327154104	1
1	93771	1379.02327154104	0
1	94283	1383.65426979747	1
1	94283	1383.65426979747	0
1	94690	1389.67270931471	1
1	94690	1389.67270931471	0
1	95068	1398.93017706616	1
1	95068	1398.93017706616	0
1	95943	1411.95432525565	1
1	95943	1411.95432525565	0
1	96098	1413.64801340533	1
1	96098	1413.64801340533	0
1	96617	1419.19114194067	1
1	96617	1419.19114194067	0
1	97056	1426.50211003575	1
1	97056	1426.50211003575	0
1	97442	1429.3424693344	1
1	97442	1429.3424693344	0
1	97738	1432.22358434748	1
1	97738	1432.22358434748	0
1	98251	1443.78565453947	1
1	98251	1443.78565453947	0
1	98390	1446.86218701391	1
1	98390	1446.86218701391	0
1	98960	1468.50371061406	1
1	98960	1468.50371061406	0
1	99495	1475.4690344785	1
1	99495	1475.4690344785	0
1	100483	1487.44070480896	1
1	100483	1487.44070480896	0
1	100937	1492.5630346024	1
1	100937	1492.5630346024	0
1	101081	1499.90565076504	1
1	101081	1499.90565076504	0
1	101375	1507.07157637408	1
1	101375	1507.07157637408	0
1	101718	1512.1952481853	1
1	101718	1512.1952481853	0
1	102026	1521.02869290316	1
1	102026	1521.02869290316	0
1	102363	1524.23809741019	1
1	102363	1524.23809741019	0
1	102643	1527.8407950987	1
1	102643	1527.8407950987	0
1	102826	1533.21225930927	1
1	102826	1533.21225930927	0
1	103104	1536.81714871637	1
1	103104	1536.81714871637	0
1	103722	1540.38951030065	1
1	103722	1540.38951030065	0
1	104702	1546.24921895646	1
1	104702	1546.24921895646	0
1	105543	1559.63784862734	1
1	105543	1559.63784862734	0
1	105877	1562.02698614042	1
1	105877	1562.02698614042	0
1	106123	1563.79748151596	1
1	106123	1563.79748151596	0
1	106645	1575.9568561332	1
1	106645	1575.9568561332	0
1	106967	1586.11465734094	1
1	106967	1586.11465734094	0
1	107295	1589.27212981097	1
1	107295	1589.27212981097	0
1	108027	1596.50756840697	1
1	108027	1596.50756840697	0
1	108529	1604.53833296832	1
1	108529	1604.53833296832	0
1	108717	1607.42289841386	1
1	108717	1607.42289841386	0
1	109125	1611.07634339293	1
1	109125	1611.07634339293	0
1	109391	1612.8763760679	1
1	109391	1612.8763760679	0
1	109860	1620.14827665651	1
1	109860	1620.14827665651	0
1	110199	1643.84677880775	1
1	110199	1643.84677880775	0
1	110408	1645.79982426337	1
1	110408	1645.79982426337	0
1	110563	1649.07264916614	1
1	110563	1649.07264916614	0
1	111304	1660.44790082066	1
1	111304	1660.44790082066	0
1	111433	1662.11976970229	1
1	111433	1662.11976970229	0
1	111748	1663.87563366172	1
1	111748	1663.87563366172	0
1	112101	1666.65473777135	1
1	112101	1666.65473777135	0
1	112661	1671.55931835184	1
1	112661	1671.55931835184	0
1	113290	1684.67840099216	1
1	113290	1684.67840099216	0
1	113589	1693.44339105677	1
1	113589	1693.44339105677	0
1	113804	1695.57512077365	1
1	113807	1696.15816762648	0
1	114189	1700.43088511385	1
1	114189	1700.43088511385	0
1	114618	1708.43314388847	1
1	114618	1708.43314388847	0
1	115252	1719.01375527348	1
1	115252	1719.01375527348	0
1	115670	1723.88101180403	1
1	115670	1723.88101180403	0
1	116130	1730.48802558196	1
1	116130	1730.48802558196	0
1	116630	1734.59126041882	1
1	116630	1734.59126041882	0
1	116848	1736.44113357868	1
1	116848	1736.44113357868	0
1	117953	1750.73108031395	1
1	117953	1750.73108031395	0
1	118491	1757.14846883394	1
1	118491	1757.14846883394	0
1	118831	1764.69645154356	1
1	118831	1764.69645154356	0
1	119291	1771.58183815627	1
1	119291	1771.58183815627	0
1	120184	1778.53054423921	1
1	120184	1778.53054423921	0
1	120528	1782.53620463819	1
1	120528	1782.53620463819	0
1	120815	1785.07716993635	1
1	120815	1785.07716993635	0
1	121136	1791.67427957926	1
1	121136	1791.67427957926	0
1	121517	1800.65289246249	1
1	121517	1800.65289246249	0
1	122137	1826.68231962623	1
1	122137	1826.68231962623	0
1	122734	1832.73365234794	1
1	122734	1832.73365234794	0
1	123279	1839.18384571844	1
1	123279	1839.18384571844	0
1	123678	1842.85341445632	1
1	123678	1842.85341445632	0
1	124034	1851.23314618442	1
1	124034	1851.23314618442	0
1	124351	1855.30455403377	1
1	124351	1855.30455403377	0
1	124520	1858.73881989473	1
1	124520	1858.73881989473	0
1	124859	1861.37377771052	1
1	124859	1861.37377771052	0
1	126039	1882.70114110079	1
1	126039	1882.70114110079	0
1	126269	1890.48362395731	1
1	126269	1890.48362395731	0
1	126930	1897.71764533205	1
1	126930	1897.71764533205	0
1	127226	1903.93767676187	1
1	127226	1903.93767676187	0
1	127383	1906.16909277885	1
1	127383	1906.16909277885	0
1	127941	1916.70144174457	1
1	127941	1916.70144174457	0
1	128526	1923.36974743939	1
1	128526	1923.36974743939	0
1	129207	1932.22595332738	1
1	129207	1932.22595332738	0
1	129406	1940.11343626745	1
1	129406	1940.11343626745	0
1	129551	1943.47019069024	1
1	129551	1943.47019069024	0
1	129967	1947.46773629723	1
1	129967	1947.46773629723	0
1	131065	1957.78101507667	1
1	131065	1957.78101507667	0
1	131507	1961.11929469389	1
1	131507	1961.11929469389	0
1	131722	1963.24029432283	1
1	131722	1963.24029432283	0
1	132179	1966.72340265562	1
1	132350	1968.70470248604	0
1	132437	1969.8801557026	1
1	132437	1969.8801557026	0
1	133068	1976.58583312319	1
1	133068	1976.58583312319	0
1	133412	1990.9360348421	1
1	133412	1990.9360348421	0
1	133774	1998.7165738641	1
1	133774	1998.7165738641	0
1	134098	2006.79771558742	1
1	134098	2006.79771558742	0
1	134699	2016.39515706299	1
1	134699	2016.39515706299	0
1	135016	2019.37098395335	1
1	135016	2019.37098395335	0
1	135591	2025.01230487875	1
1	135591	2025.01230487875	0
1	136135	2029.52074953069	1
1	136135	2029.52074953069	0
1	136454	2042.87247869837	1
1	136454	2042.87247869837	0
1	136854	2048.76606794529	1
1	136854	2048.76606794529	0
1	137631	2059.63035995558	1
1	137631	2059.63035995558	0
1	137967	2061.80770440488	1
1	137967	2061.80770440488	0
1	138430	2065.62021162954	1
1	138430	2065.62021162954	0
1	139164	2087.56528352378	1
1	139164	2087.56528352378	0
1	139304	2090.25141163409	1
1	139304	2090.25141163409	0
1	139951	2098.60665096112	1
1	139951	2098.60665096112	0
1	140408	2101.73597938115	1
1	140408	2101.73597938115	0
1	140658	2105.89253675186	1
1	140658	2105.89253675186	0
1	141317	2123.75230957354	1
1	141317	2123.75230957354	0
1	141504	2125.79522985424	1
1	141528	2127.81576596865	0
1	141987	2134.01440246011	1
1	141987	2134.01440246011	0
1	142635	2138.05094777423	1
1	142635	2138.05094777423	0
1	143296	2151.5695153114	1
1	143296	2151.5695153114	0
1	143786	2155.52628365481	1
1	143786	2155.52628365481	0
1	144014	2157.46996930108	1
1	144014	2157.46996930108	0
1	144338	2159.66532968453	1
1	144338	2159.66532968453	0
1	144848	2166.64775677555	1
1	144848	2166.64775677555	0
1	145359	2171.99866607202	1
1	145359	2171.99866607202	0
1	145662	2184.81664122814	1
1	145662	2184.81664122814	0
1	146011	2188.01921527385	1
1	146011	2188.01921527385	0
1	146446	2196.44169667766	1
1	146446	2196.44169667766	0
1	147261	2205.25459926631	1
1	147261	2205.25459926631	0
1	147719	2207.56537929711	1
1	147719	2207.56537929711	0
1	148368	2219.17997750991	1
1	148368	2219.17997750991	0
1	148575	2226.87509757357	1
1	148575	2226.87509757357	0
1	148834	2231.32669949469	1
1	148834	2231.32669949469	0
1	149234	2240.24948117724	1
1	149234	2240.24948117724	0
1	149400	2242.05592737556	1
1	149400	2242.05592737556	0
1	149959	2244.90614786048	1
1	149959	2244.90614786048	0
1	150739	2252.4997415837	1
1	150739	2252.4997415837	0
1	151141	2264.84348704761	1
1	151141	2264.84348704761	0
1	151556	2271.21980790612	1
1	151556	2271.21980790612	0
1	151897	2278.74462861566	1
1	151897	2278.74462861566	0
1	152096	2286.2233969106	1
1	152096	2286.2233969106	0
1	152295	2289.02083663049	1
1	152295	2289.02083663049	0
1	152598	2292.94213039988	1
1	152598	2292.94213039988	0
1	152781	2304.01487412473	1
1	152781	2304.01487412473	0
1	153282	2312.90999305293	1
1	153282	2312.90999305293	0
1	154719	2328.31115554134	1
1	154719	2328.31115554134	0
1	155357	2336.01969753537	1
1	155357	2336.01969753537	0
1	155883	2341.0388171708	1
1	155883	2341.0388171708	0
1	156108	2343.70872018286	1
1	156108	2343.70872018286	0
1	156484	2346.65341208863	1
1	156484	2346.65341208863	0
1	156626	2349.28012614882	1
1	156626	2349.28012614882	0
1	156932	2352.59617475344	1
1	156932	2352.59617475344	0
1	157315	2366.52279456761	1
1	157315	2366.52279456761	0
1	158309	2376.17545547721	1
1	158309	2376.17545547721	0
1	158804	2379.7419489403	1
1	158804	2379.7419489403	0
1	159201	2382.23187374896	1
1	159245	2382.77233812235	0
1	159673	2391.42118494619	1
1	159673	2391.42118494619	0
1	160335	2409.67536304499	1
1	160335	2409.67536304499	0
1	160641	2414.93989692563	1
1	160641	2414.93989692563	0
1	160833	2418.06398415305	1
1	160833	2418.06398415305	0
1	160996	2421.10102197788	1
1	160996	2421.10102197788	0
1	161358	2425.70421199248	1
1	161358	2425.70421199248	0
1	161637	2430.28654494188	1
1	161637	2430.28654494188	0
1	161874	2432.21913602588	1
1	161896	2432.99639959623	0
1	162133	2438.38947695723	1
1	162133	2438.38947695723	0
1	162918	2450.69640377623	1
1	162918	2450.69640377623	0
1	163226	2462.51081540892	1
1	163226	2462.51081540892	0
1	163722	2470.31056876546	1
1	163722	2470.31056876546	0
1	164001	2479.06597197373	1
1	164001	2479.06597197373	0
1	164254	2487.71348422788	1
1	164254	2487.71348422788	0
1	164511	2493.31542394034	1
1	164511	2493.31542394034	0
1	164922	2497.57049721675	1
1	164922	2497.57049721675	0
1	165845	2505.73457078774	1
1	165845	2505.73457078774	0
1	166343	2511.66044681859	1
1	166343	2511.66044681859	0
1	166683	2515.69139638691	1
1	166683	2515.69139638691	0
1	167274	2519.25626425628	1
1	167274	2519.25626425628	0
1	167600	2524.2739292017	1
1	167600	2524.2739292017	0
1	168114	2527.3780168502	1
1	168114	2527.3780168502	0
1	168294	2529.33578237759	1
1	168294	2529.33578237759	0
1	168445	2532.71063805852	1
1	168445	2532.71063805852	0
1	168747	2534.77778086543	1
1	168747	2534.77778086543	0
1	169326	2539.69216645079	1
1	169326	2539.69216645079	0
1	170052	2548.29844978185	1
1	170052	2548.29844978185	0
1	170641	2554.15132213464	1
1	170641	2554.15132213464	0
1	171212	2565.92849890614	1
1	171212	2565.92849890614	0
1	171832	2574.53752822429	1
1	171832	2574.53752822429	0
1	171976	2584.24291755491	1
1	171976	2584.24291755491	0
1	172315	2591.21655765423	1
1	172315	2591.21655765423	0
1	172600	2593.50961035487	1
1	172600	2593.50961035487	0
1	172851	2596.03402561804	1
1	172851	2596.03402561804	0
1	173117	2597.99334887137	1
1	173117	2597.99334887137	0
1	173530	2604.17313303126	1
1	173530	2604.17313303126	0
1	173725	2606.58517114773	1
1	173725	2606.58517114773	0
1	174205	2629.35710549473	1
1	174205	2629.35710549473	0
1	174720	2633.57488586395	1
1	174720	2633.57488586395	0
1	175043	2644.08089716954	1
1	175043	2644.08089716954	0
1	175706	2653.44026172963	1
1	175706	2653.44026172963	0
1	176287	2664.36448854073	1
1	176287	2664.36448854073	0
1	176637	2679.68884024184	1
1	176637	2679.68884024184	0
1	177138	2684.68449178622	1
1	177138	2684.68449178622	0
1	177378	2687.73796708329	1
1	177378	2687.73796708329	0
1	177739	2689.56053588689	1
1	177739	2689.56053588689	0
1	178139	2696.20918624854	1
1	178139	2696.20918624854	0
1	178315	2699.06469278067	1
1	178315	2699.06469278067	0
1	179019	2706.18120903399	1
1	179019	2706.18120903399	0
1	179747	2712.67896650274	1
1	179747	2712.67896650274	0
1	179977	2715.76613732791	1
1	179977	2715.76613732791	0
1	180538	2719.74850689586	1
1	180538	2719.74850689586	0
1	180779	2722.11199656632	1
1	180983	2725.52658325478	0
1	181159	2726.84558916487	1
1	181159	2726.84558916487	0
1	181451	2729.12385412292	1
1	181451	2729.12385412292	0
1	182876	2746.25189804432	1
1	182876	2746.25189804432	0
1	183136	2748.88743624248	1
1	183136	2748.88743624248	0
1	183361	2754.40795151309	1
1	183361	2754.40795151309	0
1	183656	2756.21697471396	1
1	183656	2756.21697471396	0
1	183845	2762.18468556445	1
1	183845	2762.18468556445	0
1	184934	2776.20955773667	1
1	184934	2776.20955773667	0
1	185285	2786.11981749398	1
1	185285	2786.11981749398	0
1	185660	2791.37847926205	1
1	185660	2791.37847926205	0
1	185806	2802.80743406112	1
1	185806	2802.80743406112	0
1	186158	2804.85965147685	1
1	186158	2804.85965147685	0
1	186353	2806.79152805026	1
1	186511	2809.40060186249	2
1	186701	2810.22125991504	1
1	186769	2811.64630233254	2
1	186804	2811.65390917388	1
1	186805	2811.76674157356	0
1	187891	2833.92154175186	1
1	187891	2833.92154175186	0
1	188303	2836.92958363064	1
1	188303	2836.92958363064	0
1	188528	2840.37817681666	1
1	188528	2840.37817681666	0
1	188734	2842.38077723448	1
1	188734	2842.38077723448	0
1	188908	2859.0349299966	1
1	188908	2859.0349299966	0
1	189081	2863.04563726045	1
1	189081	2863.04563726045	0
1	189586	2871.34012654783	1
1	189586	2871.34012654783	0
1	189926	2874.68934589348	1
1	189926	2874.68934589348	0
1	190256	2877.43365023964	1
1	190256	2877.43365023964	0
1	190756	2883.56571692638	1
1	190756	2883.56571692638	0
1	191563	2894.25429434812	1
1	191563	2894.25429434812	0
1	192104	2898.60760590256	1
1	192104	2898.60760590256	0
1	192645	2902.06381702962	1
1	192645	2902.06381702962	0
1	193343	2906.19432502636	1
1	193343	2906.19432502636	0
1	193821	2909.55755396232	1
1	193821	2909.55755396232	0
1	194471	2922.68336978563	1
1	194471	2922.68336978563	0
1	195241	2927.75613218413	1
1	195241	2927.75613218413	0
1	195475	2938.4719851438	1
1	195475	2938.4719851438	0
1	195894	2942.84941414803	1
1	195894	2942.84941414803	0
1	196274	2947.00478324403	1
1	196274	2947.00478324403	0
1	196443	2950.52560132959	1
1	196443	2950.52560132959	0
1	196670	2957.13975847855	1
1	196670	2957.13975847855	0
1	196965	2963.32084808424	1
1	196965	2963.32084808424	0
1	197699	2976.12537188658	1
1	197699	2976.12537188658	0
1	198083	2980.64428900496	1
1	198083	2980.64428900496	0
1	198328	2986.84435287904	1
1	198328	2986.84435287904	0
1	198567	2988.9192503121	1
1	198567	2988.9192503121	0
1	198845	2993.86890521959	1
1	198845	2993.86890521959	0
1	199046	2997.58728990085	1
1	199046	2997.58728990085	0
1	200497	3018.85969597987	1
1	200497	3018.85969597987	0
1	200652	3022.41521196403	1
1	200652	3022.41521196403	0
1	200867	3028.7425073974	1
1	200867	3028.7425073974	0
1	201005	3030.51697412536	1
1	201005	3030.51697412536	0
1	201194	3034.84261432077	1
1	201194	3034.84261432077	0
1	201471	3041.27159749139	1
1	201471	3041.27159749139	0
1	201717	3043.65859683905	1
1	201717	3043.65859683905	0
1	202407	3052.30332588261	1
1	202407	3052.30332588261	0
1	202989	3062.22502620172	1
1	202989	3062.22502620172	0
1	203234	3066.5754583365	1
1	203234	3066.5754583365	0
1	203487	3069.3223716181	1
1	203487	3069.3223716181	0
1	203766	3073.43760344595	1
1	203766	3073.43760344595	0
1	203987	3075.5808798969	1
1	203987	3075.5808798969	0
1	205034	3090.52795189506	1
1	205034	3090.52795189506	0
1	205256	3092.896286082	1
1	205256	3092.896286082	0
1	205674	3098.51070087473	1
1	205674	3098.51070087473	0
1	206192	3103.8906866121	1
1	206192	3103.8906866121	0
1	206556	3108.53182500373	1
1	206556	3108.53182500373	0
1	207105	3116.81845682246	1
1	207105	3116.81845682246	0
1	207439	3121.1823663371	1
1	207439	3121.1823663371	0
1	207778	3134.8011498426	1
1	207778	3134.8011498426	0
1	208160	3142.08675730107	1
1	208160	3142.08675730107	0
1	208326	3144.9112035414	1
1	208349	3146.2086122147	0
1	209113	3155.12575497555	1
1	209113	3155.12575497555	0
1	209622	3161.60833049922	1
1	209622	3161.60833049922	0
1	210075	3167.60310215924	1
1	210075	3167.60310215924	0
1	210322	3171.224514857	1
1	210322	3171.224514857	0
1	210721	3180.67413759895	1
1	210721	3180.67413759895	0
1	211016	3183.47951141232	1
1	211016	3183.47951141232	0
1	211270	3186.33234806924	1
1	211270	3186.33234806924	0
1	211625	3192.57173001356	1
1	211625	3192.57173001356	0
1	211883	3197.30329202161	1
1	211883	3197.30329202161	0
1	212353	3203.36219004293	1
1	212353	3203.36219004293	0
1	212758	3212.88061648119	1
1	212758	3212.88061648119	0
1	212918	3215.41472292296	1
1	212918	3215.41472292296	0
1	213252	3218.51421511504	1
1	213252	3218.51421511504	0
1	213584	3228.48377412283	1
1	213584	3228.48377412283	0
1	213929	3231.364746555	1
1	213929	3231.364746555	0
1	214184	3239.9192141021	1
1	214184	3239.9192141021	0
1	214593	3243.19609382444	1
1	214593	3243.19609382444	0
1	215095	3248.43180367508	1
1	215095	3248.43180367508	0
1	215824	3259.64764999159	1
1	215824	3259.64764999159	0
1	217092	3275.41914232189	1
1	217092	3275.41914232189	0
1	217545	3279.75737524454	1
1	217545	3279.75737524454	0
1	217768	3281.64874535774	1
1	217768	3281.64874535774	0
1	217958	3288.12533974367	1
1	217958	3288.12533974367	0
1	218498	3291.41136510134	1
1	218498	3291.41136510134	0
1	218738	3293.19378031932	1
1	218738	3293.19378031932	0
1	219057	3299.04448222637	1
1	219057	3299.04448222637	0
1	219715	3312.41815345871	1
1	219715	3312.41815345871	0
1	219937	3317.34046217209	1
1	219937	3317.34046217209	0
1	220311	3321.96795785227	1
1	220311	3321.96795785227	0
1	220614	3326.89286035116	1
1	220614	3326.89286035116	0
1	221108	3331.76247530972	1
1	221108	3331.76247530972	0
1	221844	3346.68108187814	1
1	221844	3346.68108187814	0
1	222176	3351.0006860937	1
1	222176	3351.0006860937	0
1	222320	3352.91348989121	1
1	222447	3354.84546031031	0
1	222526	3356.52138384259	1
1	222631	3357.68940328414	0
1	222846	3359.91933088857	1
1	222846	3359.91933088857	0
1	223211	3362.54467067023	1
1	223211	3362.54467067023	0
1	223856	3377.86787058087	1
1	223856	3377.86787058087	0
1	224123	3379.70559453014	1
1	224123	3379.70559453014	0
1	224386	3384.09566824481	1
1	224386	3384.09566824481	0
1	224727	3392.48095307314	1
1	224727	3392.48095307314	0
1	225085	3401.60856982357	1
1	225085	3401.60856982357	0
1	225568	3410.1574851472	1
1	225568	3410.1574851472	0
1	225740	3412.74525751669	1
1	225740	3412.74525751669	0
1	226649	3431.82494539604	1
1	226649	3431.82494539604	0
1	226890	3435.8501846239	1
1	226890	3435.8501846239	0
1	228034	3449.8257243552	1
1	228034	3449.8257243552	0
1	228692	3460.69025049211	1
1	228692	3460.69025049211	0
1	229095	3468.07069229996	1
1	229095	3468.07069229996	0
1	229697	3471.62952131263	1
1	229697	3471.62952131263	0
1	230167	3475.35944971464	1
1	230167	3475.35944971464	0
1	230581	3477.63521133957	1
1	230581	3477.63521133957	0
1	230935	3484.06365169237	1
1	230935	3484.06365169237	0
1	231240	3493.87138072827	1
1	231240	3493.87138072827	0
1	231530	3500.75423067776	1
1	231530	3500.75423067776	0
1	232335	3512.82280432731	1
1	232335	3512.82280432731	0
1	232573	3516.80467208315	1
1	232573	3516.80467208315	0
1	233232	3524.46318841043	1
1	233232	3524.46318841043	0
1	233494	3533.91621477177	1
1	233494	3533.91621477177	0
1	233924	3536.39512597667	1
1	233924	3536.39512597667	0
1	234282	3538.59788917996	1
1	234282	3538.59788917996	0
1	234465	3540.37138189802	1
1	234465	3540.37138189802	0
1	234651	3544.63431646855	1
1	234651	3544.63431646855	0
1	235270	3550.99740672325	1
1	235270	3550.99740672325	0
1	235476	3553.64662765361	1
1	235476	3553.64662765361	0
1	235652	3559.122839782	1
1	235652	3559.122839782	0
1	235992	3566.38877713532	1
1	235992	3566.38877713532	0
1	236198	3569.57413906681	1
1	236198	3569.57413906681	0
1	236352	3579.59305988596	1
1	236352	3579.59305988596	0
1	236557	3582.02308497161	1
1	236557	3582.02308497161	0
1	236787	3586.13995611574	1
1	236787	3586.13995611574	0
1	236920	3587.82773983528	1
1	236923	3588.10013246253	0
1	237132	3590.14661979577	1
1	237132	3590.14661979577	0
1	237508	3599.50055848149	1
1	237508	3599.50055848149	0
2	11760	63.79251192429	1.71213104464
2	12251	109.81591484717	1.71213067509
2	12578	181.57798757941	1.71213254433
2	13438	187.2464440633	1.71213029898
2	13884	190.30068708767	1.71213094592
2	15157	196.80799417053	1.71212977382
2	15582	198.71305890774	1.71213003413
2	17360	209.21852282901	1.71212965213
2	18942	221.16456591524	1.71213092349
2	19988	225.07470826157	1.71213155516
2	20507	229.31680855388	1.7121326091
2	20880	231.67858797995	1.71212977793
2	21386	239.83201383327	1.71213040423
2	22127	249.41827322817	1.7121302167
2	22351	253.48498828222	1.71213136598
2	22843	267.26660013435	1.71213074273
2	23636	275.62370515929	1.71213070972
2	24285	289.39854492038	1.71213041293
2	25153	366.77923094576	1.71213026222
2	27020	387.29091351493	1.71212965213
2	27526	391.26795744068	1.71213047388
2	29101	400.20287682279	1.7121301046
2	30142	404.77458667391	1.71213042417
2	30663	408.82087845177	1.71212977793
2	31123	411.46296781595	2.56489241746
2	31526	415.89685563884	1.71213009486
2	32032	419.72392200686	1.71213124068
2	32276	423.51775613382	1.71213037812
2	32483	426.47166564264	1.71213063615
2	34559	445.25383740569	1.71213342749
2	35130	462.75833025297	1.71213074273
2	35442	469.63414572288	1.71213041293
2	35773	472.23356474948	1.71213041236
2	36625	490.03510207475	1.71213096217
2	36973	513.34519844793	1.71213059589
2	37457	543.46984200822	1.71213003413
2	37795	552.2435712473	1.71212977382
2	38082	559.78161155868	1.71213085386
2	38779	565.28368438191	1.71213297788
2	39326	567.82207175414	1.71213029898
2	40069	575.54172963168	1.71213004033
2	40642	580.90810959845	1.71212965213
2	41429	589.07904719354	5.4920584498
2	41757	594.77538416226	1.71213104464
2	42088	597.13001949481	1.71213008819
2	42842	602.69947289342	1.7121301046
2	43356	605.28927218096	1.71213111856
2	44368	617.61687728293	1.71213009486
2	44630	625.69822962974	1.71213042417
2	45026	631.08517190221	1.71213040423
2	46994	652.38995012572	1.71213041293
2	47344	657.5530026399	1.7121314026
2	48666	680.14561902491	1.71213166686
2	49569	724.06807131231	1.71212977382
2	50014	734.00358564978	1.71213085386
2	50888	745.30010500638	1.71213041236
2	51891	757.83581848062	1.71213002524
2	52386	760.81542215799	1.71212977793
2	52985	765.36526651462	1.71213029898
2	53417	774.07514684758	1.71213124068
2	53970	778.24402807336	1.71212965213
2	54254	780.24470598987	1.71213028226
2	54536	783.78352486216	2.61452047336
2	54916	787.6702913757	1.71212966288
2	55346	790.40291970059	1.71213009486
2	55697	800.11024802361	1.71213042417
2	56336	812.87924221577	1.71213040423
2	56600	815.79876625312	1.7121302167
2	58030	826.65719095284	1.71213324673
2	58456	831.78659218334	1.71213092349
2	58838	835.02565726008	1.71213067509
2	59272	841.00096536149	1.71213070972
2	59653	849.94380061258	8.30925284992
2	59872	855.39212718977	1.71213037812
2	60873	879.48250821826	1.71213063615
2	61182	898.53827390373	1.71212977382
2	61439	901.80472602206	1.71213003413
2	62037	912.20081573375	1.71213085386
2	62462	921.13444455505	1.71213125034
2	62981	928.89203558294	1.7121311714
2	63601	937.12617828851	1.71213002524
2	63975	938.92684204297	1.71213125009
2	64211	942.89951829147	1.71213047388
2	64932	951.31335825919	1.71213374468
2	65151	953.37302684427	1.71212977793
2	65589	956.02522521865	1.7121301046
2	66064	957.92221803709	1.71212965213
2	66256	959.61539212812	1.71213004033
2	66614	963.43943341006	1.71213009486
2	66790	972.08037043747	1.71213008819
2	67058	979.68448070576	1.71213029898
2	67613	986.55030396553	1.71212966288
2	67917	989.9714555628	1.71213094592
2	68727	998.02950814277	1.71213074273
2	69197	1002.33766973931	1.7121302167
2	69645	1006.05555451242	1.71213092349
2	69983	1009.38021054812	1.71213028226
2	70732	1022.47152690489	1.71213096217
2	71215	1026.80426623971	1.71213061199
2	71536	1028.60089471638	1.71213037812
2	72681	1066.98047943435	1.71213070972
2	73508	1086.7793008685	1.71213335786
2	74030	1089.5690287589	1.71212977382
2	74466	1105.48680427437	1.71213041236
2	74915	1108.05432011235	1.7121311714
2	75413	1111.8486762663	1.71213134179
2	75817	1119.25482090046	1.71213047388
2	76065	1122.1762304021	1.71213026222
2	76653	1133.18138881097	1.71213041293
2	76838	1134.89641844131	1.71213004033
2	77266	1141.53597123071	1.7121301046
2	77502	1143.48455609699	1.71212977793
2	77687	1149.3086999247	1.71213003413
2	78109	1155.02053960722	1.71212965213
2	79175	1161.74329004539	1.71212966288
2	79404	1164.54603745469	1.71213155516
2	79974	1175.61613561277	1.71213133289
2	80713	1179.24809567633	1.71213111856
2	80963	1181.13731659966	1.71213028226
2	81563	1184.43868043322	1.71213110276
2	81958	1186.98741527003	1.71213042417
2	83106	1206.20990799059	1.71213002524
2	83622	1213.16737457876	1.71213136598
2	83940	1220.98844586265	1.71213061199
2	84806	1236.554601788	1.71213200975
2	84986	1242.1901114104	1.71213072632
2	85298	1246.91885861186	1.7121314026
2	85653	1255.59568291664	1.71213063615
2	85973	1263.24950016062	1.71213104464
2	86296	1265.70789132534	1.71212977382
2	87081	1295.17479744265	1.7121311714
2	87494	1297.52313927831	1.71213160086
2	87958	1302.06746628155	1.71213026222
2	89030	1325.11331795732	1.71213125034
2	89489	1329.8557620196	2.32653117907
2	90091	1333.43421022563	1.71213215613
2	90760	1344.95320908923	1.71213159885
2	91178	1350.99309359988	1.71213111856
2	91875	1358.67078227739	1.71213008819
2	93044	1367.6645103963	1.71213155516
2	93386	1375.05522990173	1.71213133289
2	93771	1379.02327154104	1.71213037812
2	94283	1383.65426979747	1.71213029898
2	94690	1389.67270931471	1.71212966288
2	95068	1398.93017706616	1.71213136598
2	95943	1411.95432525565	1.71213028226
2	96098	1413.64801340533	1.71213040423
2	96617	1419.19114194067	1.7121314026
2	97056	1426.50211003575	1.71213096217
2	97442	1429.3424693344	1.71213002524
2	97738	1432.22358434748	1.71213092349
2	98251	1443.78565453947	1.71213210009
2	98390	1446.86218701391	1.71212977382
2	98960	1468.50371061406	1.71213430835
2	99495	1475.4690344785	1.71213026222
2	100483	1487.44070480896	1.71213047388
2	100937	1492.5630346024	1.7121311714
2	101375	1507.07157637408	1.71213059589
2	101718	1512.1952481853	1.71213060972
2	102363	1524.23809741019	1.71212965213
2	102643	1527.8407950987	1.7121301046
2	102826	1533.21225930927	1.71213009486
2	103104	1536.81714871637	1.71213094592
2	103722	1540.38951030065	1.71213008819
2	104702	1546.24921895646	1.7121302167
2	105543	1559.63784862734	1.71213085587
2	105877	1562.02698614042	1.71213029898
2	106123	1563.79748151596	1.71213037812
2	106967	1586.11465734094	1.71213040423
2	107295	1589.27212981097	1.71213216688
2	108717	1607.42289841386	1.71213136598
2	109125	1611.07634339293	1.71213092349
2	109391	1612.8763760679	1.71213072632
2	109860	1620.14827665651	1.71213002524
2	110408	1645.79982426337	1.71213096217
2	110563	1649.07264916614	1.71213067509
2	111304	1660.44790082066	1.71213047388
2	111433	1662.11976970229	1.71213074273
2	111748	1663.87563366172	1.71213104464
2	112101	1666.65473777135	1.71213085386
2	112661	1671.55931835184	1.71213041236
2	113290	1684.67840099216	1.7121326091
2	113589	1693.44339105677	1.71213041293
2	113807	1696.15816762648	2.29517999094
2	114189	1700.43088511385	1.71212965213
2	114618	1708.43314388847	1.71213004033
2	115252	1719.01375527348	1.71213309989
2	115670	1723.88101180403	1.71213060972
2	116130	1730.48802558196	1.7121302167
2	116630	1734.59126041882	1.71212977793
2	116848	1736.44113357868	1.71213094592
2	117953	1750.73108031395	1.71213037812
2	118491	1757.14846883394	1.71213111856
2	118831	1764.69645154356	1.71213209071
2	119291	1771.58183815627	1.71212966288
2	120184	1778.53054423921	1.71213040423
2	120528	1782.53620463819	1.71213003413
2	120815	1785.07716993635	1.71213028226
2	121136	1791.67427957926	1.71213002524
2	121517	1800.65289246249	1.71213072632
2	122137	1826.68231962623	1.71213067509
2	122734	1832.73365234794	1.71213096217
2	123279	1839.18384571844	1.71213297788
2	123678	1842.85341445632	1.71213085386
2	124034	1851.23314618442	1.71213074273
2	124351	1855.30455403377	1.71213104464
2	124520	1858.73881989473	1.71212977382
2	124859	1861.37377771052	1.71213041236
2	126039	1882.70114110079	1.7121311714
2	126269	1890.48362395731	1.71212965213
2	126930	1897.71764533205	1.71213004033
2	127226	1903.93767676187	1.71213110276
2	127383	1906.16909277885	1.71213009486
2	127941	1916.70144174457	1.7121302167
2	128526	1923.36974743939	1.71212977793
2	129207	1932.22595332738	1.71213124068
2	129406	1940.11343626745	1.71213223486
2	129551	1943.47019069024	1.71213037812
2	129967	1947.46773629723	1.71213008819
2	131065	1957.78101507667	1.71213111856
2	131507	1961.11929469389	1.71213276622
2	131722	1963.24029432283	1.71213003413
2	132350	1968.70470248604	3.69343116331
2	132437	1969.8801557026	1.71213028226
2	133068	1976.58583312319	1.71213002524
2	133412	1990.9360348421	1.71213040423
2	133774	1998.7165738641	1.71213042417
2	134098	2006.79771558742	1.71213067509
2	134699	2016.39515706299	1.71213096217
2	135016	2019.37098395335	1.71213070972
2	135591	2025.01230487875	1.71212966288
2	136454	2042.87247869837	1.71213061199
2	136854	2048.76606794529	1.71213041236
2	137967	2061.80770440488	1.71213160086
2	138430	2065.62021162954	1.71213041293
2	139164	2087.56528352378	1.71213311372
2	139304	2090.25141163409	1.7121302167
2	139951	2098.60665096112	1.71212977382
2	140408	2101.73597938115	1.71213059589
2	140658	2105.89253675186	1.71213029898
2	141317	2123.75230957354	1.71213009486
2	141528	2127.81576596865	3.73266735509
2	141987	2134.01440246011	1.71213008819
2	142635	2138.05094777423	1.71212965213
2	143296	2151.5695153114	1.71213026222
2	143786	2155.52628365481	1.71213003413
2	144014	2157.46996930108	1.71213111856
2	144338	2159.66532968453	1.7121301046
2	144848	2166.64775677555	1.71213063615
2	145359	2171.99866607202	1.71213159885
2	145662	2184.81664122814	1.71213002524
2	146011	2188.01921527385	1.71213042417
2	147719	2207.56537929711	1.71213478962
2	148368	2219.17997750991	1.71213061199
2	148575	2226.87509757357	1.71213166686
2	148834	2231.32669949469	1.71213120634
2	149234	2240.24948117724	1.71213125034
2	149400	2242.05592737556	1.71213070972
2	149959	2244.90614786048	1.71213041236
2	150739	2252.4997415837	1.71213074273
2	151141	2264.84348704761	1.71213041293
2	151556	2271.21980790612	1.71212966288
2	151897	2278.74462861566	1.71212977793
2	152096	2286.2233969106	1.71213029898
2	152295	2289.02083663049	1.71213060972
2	152598	2292.94213039988	1.7121302167
2	152781	2304.01487412473	1.71212977382
2	153282	2312.90999305293	1.71213008819
2	154719	2328.31115554134	1.71213309989
2	155357	2336.01969753537	1.71213009486
2	155883	2341.0388171708	1.71213125009
2	156108	2343.70872018286	1.71213037812
2	156626	2349.28012614882	1.71213003413
2	156932	2352.59617475344	1.71213159885
2	158309	2376.17545547721	1.71213096217
2	158804	2379.7419489403	1.7121301046
2	159245	2382.77233812235	2.25259439863
2	159673	2391.42118494619	1.71213134179
2	160335	2409.67536304499	1.71213120634
2	160641	2414.93989692563	1.71213047388
2	160833	2418.06398415305	1.71213061199
2	160996	2421.10102197788	1.71213041236
2	161358	2425.70421199248	1.71213028226
2	161896	2432.99639959623	2.48939442421
2	162133	2438.38947695723	1.7121314026
2	162918	2450.69640377623	1.71213228193
2	163226	2462.51081540892	1.71213041293
2	163722	2470.31056876546	1.71212966288
2	164001	2479.06597197373	1.71213029898
2	164254	2487.71348422788	1.71213008819
2	164511	2493.31542394034	1.71212965213
2	164922	2497.57049721675	1.71212977382
2	165845	2505.73457078774	1.71213074273
2	166343	2511.66044681859	1.71213009486
2	166683	2515.69139638691	1.71213125034
2	167274	2519.25626425628	1.71213166686
2	168114	2527.3780168502	1.71213111856
2	168294	2529.33578237759	1.71213133289
2	168445	2532.71063805852	1.71213003413
2	168747	2534.77778086543	1.71213159885
2	169326	2539.69216645079	1.71213136598
2	170052	2548.29844978185	1.71213096217
2	170641	2554.15132213464	1.71213178335
2	171212	2565.92849890614	1.71213092349
2	171832	2574.53752822429	1.71213317909
2	171976	2584.24291755491	1.71213040423
2	172315	2591.21655765423	1.71213002524
2	172600	2593.50961035487	1.71213063615
2	172851	2596.03402561804	1.71213061199
2	173117	2597.99334887137	1.71213028226
2	173530	2604.17313303126	1.71213047388
2	173725	2606.58517114773	1.7121301046
2	174205	2629.35710549473	1.71212977793
2	175043	2644.08089716954	1.71212966288
2	175706	2653.44026172963	1.7121302167
2	176287	2664.36448854073	1.71213008819
2	176637	2679.68884024184	1.71213004033
2	177138	2684.68449178622	1.71213009486
2	177378	2687.73796708329	1.71212977382
2	177739	2689.56053588689	1.71213029898
2	178139	2696.20918624854	1.71213564211
2	178315	2699.06469278067	1.71213094592
2	179019	2706.18120903399	1.71213037812
2	179747	2712.67896650274	1.71213026222
2	179977	2715.76613732791	1.71213125009
2	180538	2719.74850689586	1.71213096217
2	180983	2725.52658325478	5.12671634059
2	181159	2726.84558916487	1.71213159885
2	181451	2729.12385412292	1.71213003413
2	182876	2746.25189804432	1.71213060972
2	183136	2748.88743624248	1.71213158128
2	183656	2756.21697471396	1.71213180435
2	183845	2762.18468556445	1.71213120634
2	184934	2776.20955773667	1.71213041236
2	185285	2786.11981749398	1.71213002524
2	185660	2791.37847926205	1.71213247412
2	185806	2802.80743406112	1.71212977793
2	186158	2804.85965147685	1.7121301046
2	186804	2811.65390917388	3.96543778527
2	186805	2811.76674157356	1.83256995074
2	187891	2833.92154175186	1.71213314015
2	188303	2836.92958363064	1.71213110276
2	188528	2840.37817681666	1.71212966288
2	188734	2842.38077723448	1.71213085386
2	189081	2863.04563726045	1.71213041293
2	189586	2871.34012654783	1.71213009486
2	189926	2874.68934589348	1.71213029898
2	191563	2894.25429434812	1.71212977382
2	192104	2898.60760590256	1.71213059589
2	192645	2902.06381702962	1.7121302167
2	193343	2906.19432502636	1.71213072632
2	193821	2909.55755396232	1.71213085587
2	195241	2927.75613218413	1.71213159885
2	195475	2938.4719851438	1.71213067509
2	195894	2942.84941414803	1.71212965213
2	196274	2947.00478324403	1.71213200975
2	196670	2957.13975847855	1.71213371034
2	196965	2963.32084808424	1.71213041236
2	197699	2976.12537188658	1.71212977793
2	198083	2980.64428900496	1.71213134179
2	198328	2986.84435287904	1.71213061199
2	198567	2988.9192503121	1.71213002524
2	198845	2993.86890521959	1.71213042417
2	199046	2997.58728990085	1.71213060972
2	200497	3018.85969597987	1.71213110276
2	200867	3028.7425073974	1.71213160086
2	201005	3030.51697412536	1.71212966288
2	201194	3034.84261432077	1.71213041293
2	201471	3041.27159749139	1.71213085386
2	201717	3043.65859683905	1.71213004033
2	202407	3052.30332588261	1.71213155516
2	202989	3062.22502620172	1.71213166686
2	203234	3066.5754583365	1.71213124068
2	203487	3069.3223716181	1.71213125034
2	203766	3073.43760344595	1.71213059589
2	203987	3075.5808798969	1.71212977382
2	205034	3090.52795189506	1.71213362256
2	205256	3092.896286082	1.71213037812
2	206192	3103.8906866121	1.71213085587
2	206556	3108.53182500373	1.71213072632
2	207105	3116.81845682246	1.7121302167
2	207439	3121.1823663371	1.71213067509
2	207778	3134.8011498426	1.71213041236
2	208160	3142.08675730107	1.71213094592
2	208349	3146.2086122147	3.00953895556
2	209622	3161.60833049922	1.71212965213
2	210075	3167.60310215924	1.71213092349
2	210322	3171.224514857	1.7121301046
2	210721	3180.67413759895	1.71212977793
2	211016	3183.47951141232	1.71213134179
2	211270	3186.33234806924	1.71213063615
2	211625	3192.57173001356	1.71213110276
2	211883	3197.30329202161	1.71213060972
2	212353	3203.36219004293	1.7121314026
2	212758	3212.88061648119	1.71213410486
2	212918	3215.41472292296	1.71213085386
2	213252	3218.51421511504	1.71213009486
2	213584	3228.48377412283	1.71213008819
2	214184	3239.9192141021	1.71213041293
2	214593	3243.19609382444	1.71213002524
2	215095	3248.43180367508	1.71212966288
2	215824	3259.64764999159	1.71213026222
2	217092	3275.41914232189	1.71213111856
2	217545	3279.75737524454	1.71212977382
2	217768	3281.64874535774	1.71213266314
2	217958	3288.12533974367	1.71213166686
2	218498	3291.41136510134	1.71213085587
2	218738	3293.19378031932	1.71213003413
2	219057	3299.04448222637	1.71213159885
2	219715	3312.41815345871	1.71213120634
2	219937	3317.34046217209	1.7121302167
2	220311	3321.96795785227	1.71213094592
2	220614	3326.89286035116	1.71213067509
2	221108	3331.76247530972	1.71213040423
2	221844	3346.68108187814	1.71213430835
2	222176	3351.0006860937	1.71213092349
2	222447	3354.84546031031	3.64410083146
2	222631	3357.68940328414	2.88015005354
2	222846	3359.91933088857	1.71212977793
2	223211	3362.54467067023	1.71213063615
2	224123	3379.70559453014	1.71213042417
2	224386	3384.09566824481	1.7121314026
2	224727	3392.48095307314	1.71213009486
2	225085	3401.60856982357	1.71213134179
2	225568	3410.1574851472	1.71213085386
2	225740	3412.74525751669	1.71213004033
2	226649	3431.82494539604	1.71213125034
2	226890	3435.8501846239	1.71213002524
2	228034	3449.8257243552	1.71213029898
2	228692	3460.69025049211	1.71213008819
2	229095	3468.07069229996	1.71213216688
2	229697	3471.62952131263	1.71212977382
2	230167	3475.35944971464	1.71213166686
2	230581	3477.63521133957	1.71213072632
2	230935	3484.06365169237	1.71213136598
2	231240	3493.87138072827	1.7121302167
2	231530	3500.75423067776	1.71213074273
2	232335	3512.82280432731	1.71213028226
2	232573	3516.80467208315	1.71213026222
2	233232	3524.46318841043	1.71213040423
2	233494	3533.91621477177	1.71213041236
2	233924	3536.39512597667	1.71213061199
2	234282	3538.59788917996	1.71213094592
2	234465	3540.37138189802	1.71213125009
2	234651	3544.63431646855	1.71213092349
2	235270	3550.99740672325	1.71212977793
2	235476	3553.64662765361	1.7121301046
2	235652	3559.122839782	1.7121314026
2	235992	3566.38877713532	1.71213009486
2	236198	3569.57413906681	1.71213158128
2	236352	3579.59305988596	1.71213047388
2	236557	3582.02308497161	1.71213060972
2	236787	3586.13995611574	1.71212965213
2	236923	3588.10013246253	1.98452422811
2	237132	3590.14661979577	1.71213292817
2	237508	3599.50055848149	1.71213067509
3	11760	63.79251192429	1.71213104464
3	12251	109.81591484717	1.71213067509
3	12578	181.57798757941	1.71213254433
3	13438	187.2464440633	1.71213029898
3	13884	190.30068708767	1.71213094592
3	15157	196.80799417053	1.71212977382
3	15582	198.71305890774	1.71213003413
3	17360	209.21852282901	1.71212965213
3	18942	221.16456591524	1.71213092349
3	19988	225.07470826157	1.71213155516
3	20507	229.31680855388	1.7121326091
3	20880	231.67858797995	1.71212977793
3	21386	239.83201383327	1.71213040423
3	22127	249.41827322817	1.7121302167
3	22351	253.48498828222	1.71213136598
3	22843	267.26660013435	1.71213074273
3	23636	275.62370515929	1.71213070972
3	24285	289.39854492038	1.71213041293
3	25153	366.77923094576	1.71213026222
3	27020	387.29091351493	1.71212965213
3	27526	391.26795744068	1.71213047388
3	29101	400.20287682279	1.7121301046
3	30142	404.77458667391	1.71213042417
3	30663	408.82087845177	1.71212977793
3	31123	411.46296781595	2.56489241746
3	31526	415.89685563884	1.71213009486
3	32032	419.72392200686	1.71213124068
3	32276	423.51775613382	1.71213037812
3	32483	426.47166564264	1.71213063615
3	34559	445.25383740569	1.71213342749
3	35130	462.75833025297	1.71213074273
3	35442	469.63414572288	1.71213041293
3	35773	472.23356474948	1.71213041236
3	36625	490.03510207475	1.71213096217
3	36973	513.34519844793	1.71213059589
3	37457	543.46984200822	1.71213003413
3	37795	552.2435712473	1.71212977382
3	38082	559.78161155868	1.71213085386
3	38779	565.28368438191	1.71213297788
3	39326	567.82207175414	1.71213029898
3	40069	575.54172963168	1.71213004033
3	40642	580.90810959845	1.71212965213
3	41429	589.07904719354	5.4920584498
3	41757	594.77538416226	1.71213104464
3	42088	597.13001949481	1.71213008819
3	42842	602.69947289342	1.7121301046
3	43356	605.28927218096	1.71213111856
3	44368	617.61687728293	1.71213009486
3	44630	625.69822962974	1.71213042417
3	45026	631.08517190221	1.71213040423
3	46994	652.38995012572	1.71213041293
3	47344	657.5530026399	1.7121314026
3	48666	680.14561902491	1.71213166686
3	49569	724.06807131231	1.71212977382
3	50014	734.00358564978	1.71213085386
3	50888	745.30010500638	1.71213041236
3	51891	757.83581848062	1.71213002524
3	52386	760.81542215799	1.71212977793
3	52985	765.36526651462	1.71213029898
3	53417	774.07514684758	1.71213124068
3	53970	778.24402807336	1.71212965213
3	54254	780.24470598987	1.71213028226
3	54536	783.78352486216	2.61452047336
3	54916	787.6702913757	1.71212966288
3	55346	790.40291970059	1.71213009486
3	55697	800.11024802361	1.71213042417
3	56336	812.87924221577	1.71213040423
3	56600	815.79876625312	1.7121302167
3	58030	826.65719095284	1.71213324673
3	58456	831.78659218334	1.71213092349
3	58838	835.02565726008	1.71213067509
3	59272	841.00096536149	1.71213070972
3	59653	849.94380061258	8.30925284992
3	59872	855.39212718977	1.71213037812
3	60873	879.48250821826	1.71213063615
3	61182	898.53827390373	1.71212977382
3	61439	901.80472602206	1.71213003413
3	62037	912.20081573375	1.71213085386
3	62462	921.13444455505	1.71213125034
3	62981	928.89203558294	1.7121311714
3	63601	937.12617828851	1.71213002524
3	63975	938.92684204297	1.71213125009
3	64211	942.89951829147	1.71213047388
3	64932	951.31335825919	1.71213374468
3	65151	953.37302684427	1.71212977793
3	65589	956.02522521865	1.7121301046
3	66064	957.92221803709	1.71212965213
3	66256	959.61539212812	1.71213004033
3	66614	963.43943341006	1.71213009486
3	66790	972.08037043747	1.71213008819
3	67058	979.68448070576	1.71213029898
3	67613	986.55030396553	1.71212966288
3	67917	989.9714555628	1.71213094592
3	68727	998.02950814277	1.71213074273
3	69197	1002.33766973931	1.7121302167
3	69645	1006.05555451242	1.71213092349
3	69983	1009.38021054812	1.71213028226
3	70732	1022.47152690489	1.71213096217
3	71215	1026.80426623971	1.71213061199
3	71536	1028.60089471638	1.71213037812
3	72681	1066.98047943435	1.71213070972
3	73508	1086.7793008685	1.71213335786
3	74030	1089.5690287589	1.71212977382
3	74466	1105.48680427437	1.71213041236
3	74915	1108.05432011235	1.7121311714
3	75413	1111.8486762663	1.71213134179
3	75817	1119.25482090046	1.71213047388
3	76065	1122.1762304021	1.71213026222
3	76653	1133.18138881097	1.71213041293
3	76838	1134.89641844131	1.71213004033
3	77266	1141.53597123071	1.7121301046
3	77502	1143.48455609699	1.71212977793
3	77687	1149.3086999247	1.71213003413
3	78109	1155.02053960722	1.71212965213
3	79175	1161.74329004539	1.71212966288
3	79404	1164.54603745469	1.71213155516
3	79974	1175.61613561277	1.71213133289
3	80713	1179.24809567633	1.71213111856
3	80963	1181.13731659966	1.71213028226
3	81563	1184.43868043322	1.71213110276
3	81958	1186.98741527003	1.71213042417
3	83106	1206.20990799059	1.71213002524
3	83622	1213.16737457876	1.71213136598
3	83940	1220.98844586265	1.71213061199
3	84806	1236.554601788	1.71213200975
3	84986	1242.1901114104	1.71213072632
3	85298	1246.91885861186	1.7121314026
3	85653	1255.59568291664	1.71213063615
3	85973	1263.24950016062	1.71213104464
3	86296	1265.70789132534	1.71212977382
3	87081	1295.17479744265	1.7121311714
3	87494	1297.52313927831	1.71213160086
3	87958	1302.06746628155	1.71213026222
3	89030	1325.11331795732	1.71213125034
3	89489	1329.8557620196	2.32653117907
3	90091	1333.43421022563	1.71213215613
3	90760	1344.95320908923	1.71213159885
3	91178	1350.99309359988	1.71213111856
3	91875	1358.67078227739	1.71213008819
3	93044	1367.6645103963	1.71213155516
3	93386	1375.05522990173	1.71213133289
3	93771	1379.02327154104	1.71213037812
3	94283	1383.65426979747	1.71213029898
3	94690	1389.67270931471	1.71212966288
3	95068	1398.93017706616	1.71213136598
3	95943	1411.95432525565	1.71213028226
3	96098	1413.64801340533	1.71213040423
3	96617	1419.19114194067	1.7121314026
3	97056	1426.50211003575	1.71213096217
3	97442	1429.3424693344	1.71213002524
3	97738	1432.22358434748	1.71213092349
3	98251	1443.78565453947	1.71213210009
3	98390	1446.86218701391	1.71212977382
3	98960	1468.50371061406	1.71213430835
3	99495	1475.4690344785	1.71213026222
3	100483	1487.44070480896	1.71213047388
3	100937	1492.5630346024	1.7121311714
3	101375	1507.07157637408	1.71213059589
3	101718	1512.1952481853	1.71213060972
3	102363	1524.23809741019	1.71212965213
3	102643	1527.8407950987	1.7121301046
3	102826	1533.21225930927	1.71213009486
3	103104	1536.81714871637	1.71213094592
3	103722	1540.38951030065	1.71213008819
3	104702	1546.24921895646	1.7121302167
3	105543	1559.63784862734	1.71213085587
3	105877	1562.02698614042	1.71213029898
3	106123	1563.79748151596	1.71213037812
3	106967	1586.11465734094	1.71213040423
3	107295	1589.27212981097	1.71213216688
3	108717	1607.42289841386	1.71213136598
3	109125	1611.07634339293	1.71213092349
3	109391	1612.8763760679	1.71213072632
3	109860	1620.14827665651	1.71213002524
3	110408	1645.79982426337	1.71213096217
3	110563	1649.07264916614	1.71213067509
3	111304	1660.44790082066	1.71213047388
3	111433	1662.11976970229	1.71213074273
3	111748	1663.87563366172	1.71213104464
3	112101	1666.65473777135	1.71213085386
3	112661	1671.55931835184	1.71213041236
3	113290	1684.67840099216	1.7121326091
3	113589	1693.44339105677	1.71213041293
3	113807	1696.15816762648	2.29517999094
3	114189	1700.43088511385	1.71212965213
3	114618	1708.43314388847	1.71213004033
3	115252	1719.01375527348	1.71213309989
3	115670	1723.88101180403	1.71213060972
3	116130	1730.48802558196	1.7121302167
3	116630	1734.59126041882	1.71212977793
3	116848	1736.44113357868	1.71213094592
3	117953	1750.73108031395	1.71213037812
3	118491	1757.14846883394	1.71213111856
3	118831	1764.69645154356	1.71213209071
3	119291	1771.58183815627	1.71212966288
3	120184	1778.53054423921	1.71213040423
3	120528	1782.53620463819	1.71213003413
3	120815	1785.07716993635	1.71213028226
3	121136	1791.67427957926	1.71213002524
3	121517	1800.65289246249	1.71213072632
3	122137	1826.68231962623	1.71213067509
3	122734	1832.73365234794	1.71213096217
3	123279	1839.18384571844	1.71213297788
3	123678	1842.85341445632	1.71213085386
3	124034	1851.23314618442	1.71213074273
3	124351	1855.30455403377	1.71213104464
3	124520	1858.73881989473	1.71212977382
3	124859	1861.37377771052	1.71213041236
3	126039	1882.70114110079	1.7121311714
3	126269	1890.48362395731	1.71212965213
3	126930	1897.71764533205	1.71213004033
3	127226	1903.93767676187	1.71213110276
3	127383	1906.16909277885	1.71213009486
3	127941	1916.70144174457	1.7121302167
3	128526	1923.36974743939	1.71212977793
3	129207	1932.22595332738	1.71213124068
3	129406	1940.11343626745	1.71213223486
3	129551	1943.47019069024	1.71213037812
3	129967	1947.46773629723	1.71213008819
3	131065	1957.78101507667	1.71213111856
3	131507	1961.11929469389	1.71213276622
3	131722	1963.24029432283	1.71213003413
3	132350	1968.70470248604	3.69343116331
3	132437	1969.8801557026	1.71213028226
3	133068	1976.58583312319	1.71213002524
3	133412	1990.9360348421	1.71213040423
3	133774	1998.7165738641	1.71213042417
3	134098	2006.79771558742	1.71213067509
3	134699	2016.39515706299	1.71213096217
3	135016	2019.37098395335	1.71213070972
3	135591	2025.01230487875	1.71212966288
3	136454	2042.87247869837	1.71213061199
3	136854	2048.76606794529	1.71213041236
3	137967	2061.80770440488	1.71213160086
3	138430	2065.62021162954	1.71213041293
3	139164	2087.56528352378	1.71213311372
3	139304	2090.25141163409	1.7121302167
3	139951	2098.60665096112	1.71212977382
3	140408	2101.73597938115	1.71213059589
3	140658	2105.89253675186	1.71213029898
3	141317	2123.75230957354	1.71213009486
3	141528	2127.81576596865	3.73266735509
3	141987	2134.01440246011	1.71213008819
3	142635	2138.05094777423	1.71212965213
3	143296	2151.5695153114	1.71213026222
3	143786	2155.52628365481	1.71213003413
3	144014	2157.46996930108	1.71213111856
3	144338	2159.66532968453	1.7121301046
3	144848	2166.64775677555	1.71213063615
3	145359	2171.99866607202	1.71213159885
3	145662	2184.81664122814	1.71213002524
[...]
53	94394	1385.46291284957	72.65536858738
53	107773	1594.79543682569	32.66543198181
53	119158	1770.69226445287	471.90714099035
53	134303	2013.94719113593	529.0171532386
53	146788	2201.73611565034	253.18506890927
53	159337	2384.5445040217	1025.0709465577
53	171474	2571.47303209987	1589.1334977436
53	182959	2747.1753046612	168.15980000402
53	194343	2922.50179878951	230.85631351028
53	208666	3151.9415027081	2160.3324702646
53	221324	3340.08891059374	706.01017463303
53	236019	3567.86200748553	256.80664816428
54	19500	223.36257670641	895.27817165203
54	32658	428.10272437875	25.765051241507
54	42521	600.03553235238	424.51416518379
54	53027	771.85541910698	104.17876892175
54	67742	989.10481621113	529.5919460842
54	79224	1162.83390589953	318.90908091327
54	92789	1365.95237884114	762.80511516052
54	104318	1544.36914905897	891.46131819243
54	119570	1773.58627154831	3.4332404573276
54	130164	1949.67279753165	401.62788221261
54	142495	2137.79812633151	110.67087300524
54	152986	2310.93681757503	828.04465940249
54	165135	2502.25010744768	1259.5320316506
54	178483	2701.15658192816	208.08634564066
54	190291	2878.18377950023	704.68566503049
54	202078	3050.59119432745	1227.4554402874
54	214048	3238.21255125703	147.11462032004
54	225938	3422.61596421292	628.81956529757
55	19578	223.36646563379	559.74252464464
55	29676	403.06245624974	523.75240804601
55	44404	623.98609920557	548.88978269711
55	55547	798.39811759944	1548.5303201996
55	69823	1008.9355573253	93.81590932197
55	81646	1185.27528484586	285.11167041712
55	93633	1377.95342082623	661.75132769524
55	104911	1549.88554300112	2.2857079790547
55	115685	1727.1112112207	335.27550374133
55	133626	1997.00444343993	365.53369565832
55	145705	2186.30708484968	294.41813188514
55	158325	2376.656454981	1083.4199503479
55	170972	2565.26929857476	106.74073793546
55	184241	2771.24819204967	455.80064635927
55	198694	2992.15677479542	785.99869221543
55	210587	3180.0518914152	101.75315530301
55	223895	3377.99346410597	152.49615174656
55	236925	3588.4344868676	605.92007198891
56	19732	223.6025577206	309.2686163048
56	33856	437.25472810976	2365.6781107462
56	45393	634.39294356312	48.8954501237
56	60226	868.73855600433	214.77515414255
56	72309	1064.41514090128	849.68824193189
56	84813	1240.47798068408	1574.3774962292
56	96735	1423.11830130023	448.2049528218
56	109211	1611.16424534158	85.511567347482
56	121347	1798.94076173617	1315.4671343995
56	132466	1972.33496341994	354.40256327701
56	143418	2152.44706023415	866.84544871091
56	157760	2372.83391316909	333.01069811628
56	169889	2547.52708619421	1504.6610984497
56	181667	2733.16766989962	392.90615744984
56	193006	2904.48219430004	500.9443075354
56	206304	3106.81969427741	282.86249410231
56	218041	3289.54655012856	672.36114971695
56	230326	3475.92308061325	973.30802053308
57	20167	227.60467594478	1837.2672763787
57	32893	429.80394141073	179.56664373604
57	42865	603.11995968189	423.78050076145
57	53435	774.77821587251	225.4154286058
57	66288	959.9580221005	255.1670384998
57	77738	1153.17948884074	755.63006624274
57	89493	1330.43759804158	1065.6422664377
57	101547	1511.32948472692	535.69850868272
57	113115	1682.96626838306	91.115074695321
57	125712	1880.85264301234	1363.1052318137
57	137140	2053.64318151207	192.23056372396
57	150174	2248.49556779478	36.188871706611
57	162162	2439.27389311265	240.2613657302
57	175085	2644.22449857773	138.03738172459
57	187135	2821.7787293249	827.82400180135
57	199294	3003.70693657072	287.86284052223
57	212052	3201.44772141028	686.13624183304
57	226017	3423.49511756695	286.84753819703
57	237300	3598.5217142383	564.63000910567
58	20246	227.98183551865	241.03250636869
58	29437	401.55011407816	983.13066865747
58	43791	610.39583128977	49.85808348457
58	57124	822.92199919675	359.81527068596
58	68562	997.33172837122	542.57454157669
58	79653	1173.90400427988	226.24677027669
58	93219	1373.34309856884	585.02421730145
58	108361	1602.82620163543	28.116796059348
58	119814	1776.35954360014	702.08264188534
58	131853	1965.01127132273	184.8015676121
58	143340	2152.03869617586	208.78242966534
58	154124	2323.95056364136	1475.1585161316
58	168117	2527.6236510447	1305.9490074407
58	178404	2700.58627818218	63.352032591949
58	189618	2872.89513283777	435.12646955756
58	203335	3068.69861898776	1270.1527347152
58	215151	3256.18166375524	326.77541201113
58	229174	3469.06949045232	325.05717981159
59	20329	229.03839856788	128.64574657024
59	36462	488.32297111258	568.17090970019
59	47379	659.82386839537	87.170661106889
59	59306	841.63454776266	318.64597415839
59	70491	1020.75939594272	1182.615608609
59	83239	1209.69089490775	24.18994070334
59	96818	1424.78997907358	420.79097079377
59	110244	1644.0876933012	1115.0659233464
59	122342	1831.02152138577	156.73358235065
59	134382	2014.68302610082	70.121272472823
59	146549	2198.89926450527	365.91628758569
59	157993	2374.46332451504	249.08157447193
59	169734	2546.58631881968	478.12361851885
59	180144	2718.03637593369	2281.077879755
59	191351	2892.60514779709	197.19416929307
59	205302	3094.50583902815	332.09399228832
59	216519	3269.84883684683	328.32294957142
59	227577	3447.43620275295	725.63399193589
60	20585	229.96645820202	625.85741447027
60	30438	407.10874867384	380.56769397267
60	40348	579.6197959387	1077.1853892481
60	52090	759.10329238006	586.90566497575
60	64934	951.66089706634	289.05169263238
60	77288	1141.77242631906	263.57485447483
60	89231	1327.52923084053	1196.2709570136
60	103269	1538.91813461919	61.184891181466
60	116413	1732.87913064089	1146.9860372556
60	128310	1921.65761766146	2530.3663900108
60	139354	2094.43776632559	80.682452882424
60	151762	2277.03249883773	161.67993399341
60	162641	2448.9842714943	101.29561963713
60	173916	2627.6449757168	759.34778473392
60	185673	2801.09530428319	960.74334380935
60	197410	2974.41324210865	2174.8358740491
60	210433	3178.96200782102	232.77130124526
60	222633	3358.20720111064	194.01835325964
60	235056	3549.28527694532	300.84219348116
61	20664	230.39726791792	1317.5220305002
61	32576	427.37819004811	1189.8753563022
61	43359	605.47793280153	1900.4407098588
61	59575	848.58754758369	520.32875911093
61	71829	1043.14773859053	519.66649208079
61	83635	1218.21331770401	579.86285807243
61	95961	1412.01340312514	893.92572274853
61	107380	1591.87336032606	68.586419149422
61	119487	1772.43693976193	559.69080459286
61	130242	1949.7009258126	761.05433479733
61	144527	2163.88089106975	68.149081810154
61	157357	2366.59237106	2204.1878557604
61	169334	2540.54024271658	262.13707819709
61	180060	2716.37513188459	7.6620343389285
61	191039	2890.51540000416	965.10967781115
61	204200	3080.89027057984	2996.3633429177
61	217100	3276.84781716723	436.43523291711
62	21177	238.11988342904	1835.3549572877
62	31134	413.28385318127	464.24275426912
62	44817	629.37304149798	1107.6320222916
62	56206	811.16711181154	433.80150352077
62	67169	983.88448615052	492.06523388598
62	78724	1159.2660589975	87.605004573253
62	95787	1411.9358830011	318.18286856073
62	106838	1584.40252693671	1223.4402780093
62	119894	1776.81841383498	230.12715374544
62	133127	1989.22390443787	490.29527352747
62	144943	2168.0476897607	655.76097601854
62	156147	2344.05135196159	230.85271259242
62	171847	2582.53078715068	293.88716908369
62	184319	2771.38394872041	170.82400993528
62	197332	2974.07089701064	369.43077353892
62	208827	3153.41362457132	46.946919730235
62	220896	3330.05034490549	1515.7920693642
62	233096	3522.7510580062	145.75947891842
63	21514	242.63335809037	987.96222938818
63	32134	421.8056257557	410.52084948118
63	47850	664.11552017228	547.44604991068
63	59734	853.67999681165	730.46923131082
63	71241	1026.88876433826	59.139836902865
63	82427	1201.49566042517	177.45542131774
63	93555	1377.31114116292	1652.4612621885
63	105903	1562.08535113784	231.27289335276
63	117659	1749.01894993583	380.57813963961
63	129413	1941.75806031212	599.15930692663
63	142181	2136.04279488567	1862.8997252338
63	155967	2341.99658980474	197.06519867401
63	167373	2523.18715777835	2479.8554685596
63	178799	2704.46907865587	203.816934222
63	190540	2881.85358654826	26.835957975347
63	205113	3091.18415570388	85.654491799337
63	216597	3270.07750787055	30.614207931832
63	229567	3471.39643770685	124.28607609589
64	21592	242.73210225817	61.672428029678
64	33048	430.09636369383	124.7258007999
64	45155	632.71004843041	3.9877900064849
64	61309	901.22375772249	732.51960667905
64	75932	1121.59854563103	1145.0534070174
64	87242	1295.81100767745	3028.3452495479
64	98757	1467.105714401	165.60854681302
64	110614	1653.32566269867	4.6083401210896
64	122262	1830.58752137986	5.7783999644233
64	137714	2060.09557280402	441.71134363704
64	150093	2247.95574447502	100.76913687512
64	161383	2428.57441334102	3.7543770647122
64	175247	2646.9274200542	752.60492615035
64	187530	2828.83596102099	1302.9741920017
64	200696	3027.03037579654	121.75241698241
64	212558	3211.16848237633	662.26380786487
64	224422	3389.4180095881	389.72348364019
64	236651	3586.11560823442	264.29689024246
65	21834	247.41588037576	40.658445346052
65	32320	424.75953500649	1084.873373689
65	48008	665.42624309496	208.32361035008
65	60713	877.77037758211	337.87784734834
65	73149	1076.25746925509	700.39507845164
65	85492	1253.88355228049	1676.7741628264
65	97230	1428.27555940135	0.96164943027046
65	108881	1609.42008293883	856.70706958108
65	121178	1792.66632858343	978.83946683066
65	131933	1965.22442506386	83.257698722093
65	144609	2164.9356261394	721.10622064345
65	159999	2400.37491839939	100.4473568249
65	172356	2591.79747971872	174.59713696879
65	187689	2832.20940861171	222.90635443093
65	199774	3013.21409294856	28.688622310767
65	211025	3184.62021743309	564.92187679408
65	222969	3360.83254003408	487.28972632696
65	233363	3532.74309481656	311.88155876553
66	21913	247.70614301147	61.801374478514
66	33777	436.44000054152	15.498771967401
66	43530	608.43134683073	6.5948378470744
66	56386	814.08663603642	194.46438291207
66	68903	1000.62553952261	409.85732976365
66	81808	1186.40293861229	1004.7236729981
66	91657	1358.41235442222	933.20108033891
66	104399	1544.53708873976	229.28515158601
66	115843	1728.77589536526	701.50830905528
66	127650	1914.98931152787	1024.8535874379
66	139166	2088.53928141739	668.09804273011
66	152386	2291.23000018318	348.2438505806
66	163853	2478.86032492903	715.35219681586
66	175568	2651.72813151293	503.57396030065
66	192273	2900.35168681292	512.31205897921
66	206971	3115.10632660576	1750.5696166119
66	219799	3315.62833195539	575.47790483461
66	231106	3492.15925051157	50.298820061548
67	22173	251.77285691624	102.14202926036
67	33126	430.33741227187	317.8602030858
67	46193	640.6511217617	7.3913132530189
67	57590	824.78813596325	720.76824530681
67	70823	1023.42277274103	2011.7478965344
67	83447	1211.45524321278	173.01868473107
67	94820	1397.21804570018	444.73301622095
67	108542	1605.71076704788	771.26311488332
67	120845	1788.50028681542	112.10493689765
67	131775	1964.73680642596	709.60053978491
67	142340	2137.0678097475	582.50087624488
67	153318	2313.48651477414	481.90599703922
67	169146	2537.98003508481	236.53133834213
67	181241	2728.00359371623	71.548028118757
67	192847	2903.43445819093	191.35381418001
67	206716	3108.87567133087	158.36866869375
67	219225	3306.50655568064	665.83372399738
67	230760	3482.35152032639	243.39753586636
68	22357	256.00374417237	2580.2711520933
68	34031	438.36570501888	31.170945725825
68	47119	655.8408712373	405.69794065577
68	60894	888.15495651279	96.677715904235
68	72793	1067.4926908065	11.41649442971
68	85149	1245.20672720926	72.514359642619
68	96314	1417.47901053807	495.0445207014
68	107459	1592.37803255003	647.03013807205
68	121685	1810.19942658514	1095.8043885469
68	133205	1989.35951596717	1096.8139893952
68	151005	2263.3866724119	466.37705819417
68	161910	2436.67734555463	779.38402863575
68	174404	2631.76727410299	495.90905910359
68	187057	2821.13073001952	133.90854017179
68	199852	3013.60062492598	727.49132233698
68	212130	3201.65005864033	534.14198297096
68	224235	3382.38353684221	339.38708131549
68	235505	3557.4107083794	847.19496405279
69	22678	265.55446939162	118.72644652763
69	34963	461.04619951024	993.05382911816
69	45077	632.50566859167	211.35284859864
69	57668	824.94505770611	426.06729941008
69	68480	996.31737740004	523.40854171871
69	84294	1229.51015775522	44.673721154891
69	99363	1475.39322560387	765.05177959463
69	111163	1660.40763895956	1066.0114535782
69	123868	1849.52101544169	729.95662347087
69	136484	2044.90310296328	54.209593109426
69	150493	2250.78761084097	277.12166262623
69	165369	2504.02244004501	732.16108290105
69	177504	2688.0304955033	59.084710063884
69	192195	2900.15714145037	44.557220026126
69	208431	3148.37582743403	302.61642808207
69	220402	3325.63420701049	621.33722866778
69	231287	3499.04209993503	895.04023448991
70	22853	268.24593175429	574.59431323674
70	34643	447.44400109575	1.1152871446958
70	45705	635.4895919596	734.79556750619
70	56881	819.54296497233	46.502052727553
70	68003	990.90521595196	120.61637703932
70	80983	1181.31605722737	68.174646921622
70	92470	1363.84824996157	888.3451499263
70	103425	1538.9824464914	937.71699915424
70	118838	1766.11265073204	1073.2291159908
70	129236	1938.40130403259	874.19038448706
70	141012	2120.28710168593	363.86316763887
70	153645	2318.00517276944	751.15936452714
70	166867	2517.26173654361	676.07056989973
70	181320	2728.2038704485	139.23781811762
70	193513	2908.73865079058	2.56106073957
70	204758	3088.96470358471	190.97632865087
70	219147	3306.23481103756	408.23598269035
70	230590	3478.84336797821	1153.2524948758
71	22933	269.21923760443	24.081868578315
71	34809	458.4532159045	188.7237266193
71	45234	633.11970147092	66.526601141808
71	58038	827.52838616511	139.37311229827
71	69059	1001.67710848148	701.52259547206
71	81308	1183.49713753873	14.110193086063
71	96396	1418.66006277118	857.59128382971
71	108031	1596.75692145273	138.83691242474
71	119974	1777.88594701597	200.50533374995
71	131067	1958.15112381584	753.87200925374
71	142850	2145.87784873269	322.29044934324
71	156759	2352.15754386837	565.51274805951
71	170230	2551.02843919394	314.33698252834
71	180825	2723.86429972412	12.169932153906
71	192430	2900.93255709423	245.80092863205
71	205544	3097.87705903338	308.47719165974
71	218885	3298.10850639209	67.68173327257
71	231539	3501.01339556362	96.655685578093
72	23012	269.82575949023	634.08848856721
72	34357	443.97623159567	866.96765577546
72	49045	707.87882082684	1041.8949101245
72	62231	919.42231330471	1039.7553057052
72	74668	1106.85274226701	449.95443470175
72	88879	1323.40118670698	473.99750876477
72	101209	1506.01365516132	64.317426505133
72	112954	1678.79746107316	1782.4629606708
72	124910	1863.03021689964	85.059227419588
72	136149	2039.85751746555	22.173782175741
72	149083	2238.5373499269	295.68271590025
72	166450	2513.97926513657	256.26661202519
72	178880	2705.47018911601	219.99545305905
72	190457	2880.53075112539	173.05704025088
72	203253	3067.61024036776	1932.6147334023
72	215229	3257.3592142974	417.44064485549
72	226420	3430.1128141457	1774.2159172711
73	23090	269.85193257334	1164.5552705279
73	36308	486.31759614425	223.55184791477
73	47617	662.61463296747	663.83115757919
73	59132	840.76991264382	623.64864410442
73	71065	1026.72152265515	45.398559940696
73	82968	1205.01499090885	796.16101036823
73	94131	1382.41030988777	1068.76155225
73	105318	1557.92571777147	63.873865565649
73	117251	1738.96845358216	586.23718192808
73	131308	1961.00024248207	254.21083461693
73	142928	2146.85153159114	1146.1799618657
73	155704	2339.83384453658	596.2071498278
73	167293	2522.56179834583	31.483472089569
73	179980	2716.33028615195	481.36808758351
73	193430	2907.84542310645	1536.8104032909
73	205961	3102.17855575623	930.28954161859
73	218119	3289.69923424547	311.53012605201
73	228895	3467.69346295933	11.499419552864
74	23485	273.91157444957	338.29398218609
74	35640	471.02240339816	79.014900405192
74	47772	663.91271203947	145.67957806523
74	59052	839.28883465177	605.49346325871
74	72387	1065.26834872463	193.97123458348
74	84990	1243.12011843599	1124.8532474696
74	96236	1417.18272842468	650.3370531095
74	108200	1599.72275920633	1066.9458912558
74	122184	1830.43881984372	36.412595106601
74	134794	2017.65885324363	1077.0755646182
74	149257	2240.34379666584	488.73211988179
74	161988	2437.98812239297	773.72850281026
74	174072	2628.54451731794	188.74274240026
74	186545	2809.93417162282	51.52353705182
74	199695	3013.06673231981	1774.8833180401
74	220818	3329.90079141167	855.5838040195
74	232699	3518.00200816358	421.51256524835
75	23673	277.22226342309	389.5242342333
75	36988	529.27714719349	26.766216847445
75	49439	723.63816356323	1067.0483465307
75	62485	921.19263006353	1345.9397264623
75	74920	1108.30775242313	823.48227598323
75	86910	1293.57396819927	252.78971269544
75	98601	1466.79157630571	676.74099187373
75	111520	1662.16971344044	546.34657949678
75	122923	1837.96371548049	592.20805929191
75	135304	2023.60654856564	272.38373747211
75	147721	2207.65835459155	109.44054098536
75	159840	2397.91491376169	138.50873930011
75	171311	2569.37345563582	1100.7198103159
75	183403	2754.50484290961	72.728095854134
75	196676	2959.8752649927	103.2711191288
75	209485	3160.74628908196	109.63419050473
75	221639	3344.96894756979	404.10577895171
75	234661	3545.06846691542	434.35305101631
76	23752	278.18807155186	1143.219797523
76	35972	473.34605640243	864.71271379831
76	48418	678.43348735805	723.02432127759
76	60307	870.00792190038	1134.8864029739
76	73823	1088.74734066865	53.882695999287
76	86436	1271.01543987168	1191.6861308886
76	100181	1486.11775149123	65.396491568931
76	112526	1670.0443385139	34.346375167468
76	125237	1871.00336776536	2197.5896496375
76	136722	2048.61186763516	62.742426881723
76	148403	2225.16296590671	279.68065205031
76	166945	2517.54413258942	2567.7429149303
76	179304	2710.61854259424	665.3535737377
76	190807	2887.8843406634	15.295856067156
76	202736	3060.51289453486	338.49184637931
76	217786	3286.41320807681	1996.2176728553
76	229909	3473.64731804778	82.574687792902
77	24073	287.68641450745	345.87637660245
77	35304	467.92201530995	710.5612807649
77	46780	650.67781971279	260.79398233485
77	65017	952.83166582113	143.81048676537
77	76517	1131.46925839804	283.3142239636
77	89889	1333.36240185002	782.44154554996
77	101812	1519.31656249023	8.64735330506
77	113377	1691.73126064384	431.26184098874
77	126133	1889.11232639951	560.10402743908
77	138060	2063.90808121661	87.614385411933
77	150927	2263.13135663468	1394.99617547
77	163014	2460.79868499599	567.16659192787
77	176749	2682.19394456875	2191.902692448
77	188942	2861.33350684752	232.89177076971
77	201055	3033.13048390784	105.88637268437
77	213970	3238.20708368917	736.42010244164
77	228817	3467.29129782335	569.76932645487
78	24335	314.45654551652	326.81980184989
78	36807	511.63306785204	402.25658943714
78	48839	703.39383154031	31.869923177847
78	65354	954.80177370723	210.23997030626
78	76876	1137.52293682854	94.202887078839
78	88535	1314.3591000189	26.993292098675
78	101131	1505.35944577819	197.65256909702
78	114897	1717.30162217359	59.819451990043
78	127807	1916.10821832835	568.43189997818
78	140078	2100.02384878526	636.66768598902
78	154358	2326.59902244145	1221.5760493143
78	165215	2503.29751660807	67.459252192827
78	176493	2677.98971777654	326.06386208268
78	191851	2896.89547530667	405.24928401933
78	203593	3071.72547285006	925.4560477511
78	215307	3257.77513378751	490.89815785258
78	227421	3446.05276261895	393.99072839759
79	24492	319.49348022486	31.226366766722
79	36648	502.66512221317	855.18317055611
79	48680	685.52057640031	2310.1488879898
79	59917	865.30517808552	488.02714256266
79	71673	1038.46274804257	692.75734399418
79	84046	1222.47193778548	48.257482833206
79	98679	1467.07256981667	208.72024994144
79	114052	1699.75075132673	156.3297109507
79	125550	1876.55599365716	2966.0453976573
79	138138	2064.35620003636	216.27193155757
79	149752	2244.50745905411	15.848277988842
79	163270	2464.57077370747	1058.9621233224
79	175408	2649.33075038896	257.25278159231
79	189124	2866.74253874398	618.7209256242
79	201317	3039.89543700109	2115.6865588447
79	214301	3241.36663332082	122.33128295679
79	225783	3419.53703665533	1151.4359745588

