version 3
run N75-20-20260518-02:27:16-159888
attr configname N75
attr datetime 20260518-02:27:16
attr datetimef 20260518-022716
attr experiment N75
attr inifile omnetpp.ini
attr iterationvars "$0=\"avg\""
attr iterationvarsd avg
attr iterationvarsf avg-
attr measurement "$0=\"avg\""
attr network test2.LoRaNetworkTest
attr processid 159888
attr repetition 20
attr replication #20
attr resultdir results
attr runnumber 20
attr seedset 20
config extends General
config **.numPatients 75
config network test2.LoRaNetworkTest
config sim-time-limit 1h
config warmup-period 60s
config simtime-resolution -11
config repeat 30
config rng-class cMersenneTwister
config record-eventlog false
config **.numPatients 20
config **.HospitalServer.app[0].queueLength:vector.vector-recording true
config **.HospitalServer.app[0].urgentWaitTime:vector.vector-recording true
config **.HospitalServer.app[0].normalWaitTime:vector.vector-recording true
config **.HospitalServer.app[0].urgentEndToEndDelay:vector.vector-recording true
config **.HospitalServer.app[0].normalEndToEndDelay:vector.vector-recording true
config **.loRaNodes[*].app[0].emergencyVariate:vector.vector-recording true
config **.vector-recording false
config **.loRaNodes[0].**.initialX "300m + uniform(-10m, 10m)"
config **.loRaNodes[0].**.initialY "250m + uniform(-8m, 8m)"
config **.loRaNodes[1].**.initialX "450m + uniform(-10m, 10m)"
config **.loRaNodes[1].**.initialY "250m + uniform(-8m, 8m)"
config **.loRaNodes[2].**.initialX "600m + uniform(-10m, 10m)"
config **.loRaNodes[2].**.initialY "250m + uniform(-8m, 8m)"
config **.loRaNodes[3].**.initialX "750m + uniform(-10m, 10m)"
config **.loRaNodes[3].**.initialY "250m + uniform(-8m, 8m)"
config **.loRaNodes[4].**.initialX "900m + uniform(-10m, 10m)"
config **.loRaNodes[4].**.initialY "250m + uniform(-8m, 8m)"
config **.loRaNodes[5].**.initialX "1050m + uniform(-10m, 10m)"
config **.loRaNodes[5].**.initialY "250m + uniform(-8m, 8m)"
config **.loRaNodes[6].**.initialX "1200m + uniform(-10m, 10m)"
config **.loRaNodes[6].**.initialY "250m + uniform(-8m, 8m)"
config **.loRaNodes[7].**.initialX "1350m + uniform(-10m, 10m)"
config **.loRaNodes[7].**.initialY "250m + uniform(-8m, 8m)"
config **.loRaNodes[8].**.initialX "1500m + uniform(-10m, 10m)"
config **.loRaNodes[8].**.initialY "250m + uniform(-8m, 8m)"
config **.loRaNodes[9].**.initialX "1650m + uniform(-10m, 10m)"
config **.loRaNodes[9].**.initialY "250m + uniform(-8m, 8m)"
config **.loRaNodes[10].**.initialX "300m + uniform(-10m, 10m)"
config **.loRaNodes[10].**.initialY "370m + uniform(-8m, 8m)"
config **.loRaNodes[11].**.initialX "450m + uniform(-10m, 10m)"
config **.loRaNodes[11].**.initialY "370m + uniform(-8m, 8m)"
config **.loRaNodes[12].**.initialX "600m + uniform(-10m, 10m)"
config **.loRaNodes[12].**.initialY "370m + uniform(-8m, 8m)"
config **.loRaNodes[13].**.initialX "750m + uniform(-10m, 10m)"
config **.loRaNodes[13].**.initialY "370m + uniform(-8m, 8m)"
config **.loRaNodes[14].**.initialX "900m + uniform(-10m, 10m)"
config **.loRaNodes[14].**.initialY "370m + uniform(-8m, 8m)"
config **.loRaNodes[15].**.initialX "1050m + uniform(-10m, 10m)"
config **.loRaNodes[15].**.initialY "370m + uniform(-8m, 8m)"
config **.loRaNodes[16].**.initialX "1200m + uniform(-10m, 10m)"
config **.loRaNodes[16].**.initialY "370m + uniform(-8m, 8m)"
config **.loRaNodes[17].**.initialX "1350m + uniform(-10m, 10m)"
config **.loRaNodes[17].**.initialY "370m + uniform(-8m, 8m)"
config **.loRaNodes[18].**.initialX "1500m + uniform(-10m, 10m)"
config **.loRaNodes[18].**.initialY "370m + uniform(-8m, 8m)"
config **.loRaNodes[19].**.initialX "1650m + uniform(-10m, 10m)"
config **.loRaNodes[19].**.initialY "370m + uniform(-8m, 8m)"
config **.loRaNodes[20].**.initialX "300m + uniform(-10m, 10m)"
config **.loRaNodes[20].**.initialY "490m + uniform(-8m, 8m)"
config **.loRaNodes[21].**.initialX "450m + uniform(-10m, 10m)"
config **.loRaNodes[21].**.initialY "490m + uniform(-8m, 8m)"
config **.loRaNodes[22].**.initialX "600m + uniform(-10m, 10m)"
config **.loRaNodes[22].**.initialY "490m + uniform(-8m, 8m)"
config **.loRaNodes[23].**.initialX "750m + uniform(-10m, 10m)"
config **.loRaNodes[23].**.initialY "490m + uniform(-8m, 8m)"
config **.loRaNodes[24].**.initialX "900m + uniform(-10m, 10m)"
config **.loRaNodes[24].**.initialY "490m + uniform(-8m, 8m)"
config **.loRaNodes[25].**.initialX "1050m + uniform(-10m, 10m)"
config **.loRaNodes[25].**.initialY "490m + uniform(-8m, 8m)"
config **.loRaNodes[26].**.initialX "1200m + uniform(-10m, 10m)"
config **.loRaNodes[26].**.initialY "490m + uniform(-8m, 8m)"
config **.loRaNodes[27].**.initialX "1350m + uniform(-10m, 10m)"
config **.loRaNodes[27].**.initialY "490m + uniform(-8m, 8m)"
config **.loRaNodes[28].**.initialX "1500m + uniform(-10m, 10m)"
config **.loRaNodes[28].**.initialY "490m + uniform(-8m, 8m)"
config **.loRaNodes[29].**.initialX "1650m + uniform(-10m, 10m)"
config **.loRaNodes[29].**.initialY "490m + uniform(-8m, 8m)"
config **.loRaNodes[30].**.initialX "300m + uniform(-10m, 10m)"
config **.loRaNodes[30].**.initialY "610m + uniform(-8m, 8m)"
config **.loRaNodes[31].**.initialX "450m + uniform(-10m, 10m)"
config **.loRaNodes[31].**.initialY "610m + uniform(-8m, 8m)"
config **.loRaNodes[32].**.initialX "600m + uniform(-10m, 10m)"
config **.loRaNodes[32].**.initialY "610m + uniform(-8m, 8m)"
config **.loRaNodes[33].**.initialX "750m + uniform(-10m, 10m)"
config **.loRaNodes[33].**.initialY "610m + uniform(-8m, 8m)"
config **.loRaNodes[34].**.initialX "900m + uniform(-10m, 10m)"
config **.loRaNodes[34].**.initialY "610m + uniform(-8m, 8m)"
config **.loRaNodes[35].**.initialX "1050m + uniform(-10m, 10m)"
config **.loRaNodes[35].**.initialY "610m + uniform(-8m, 8m)"
config **.loRaNodes[36].**.initialX "1200m + uniform(-10m, 10m)"
config **.loRaNodes[36].**.initialY "610m + uniform(-8m, 8m)"
config **.loRaNodes[37].**.initialX "1350m + uniform(-10m, 10m)"
config **.loRaNodes[37].**.initialY "610m + uniform(-8m, 8m)"
config **.loRaNodes[38].**.initialX "1500m + uniform(-10m, 10m)"
config **.loRaNodes[38].**.initialY "610m + uniform(-8m, 8m)"
config **.loRaNodes[39].**.initialX "1650m + uniform(-10m, 10m)"
config **.loRaNodes[39].**.initialY "610m + uniform(-8m, 8m)"
config **.loRaNodes[40].**.initialX "300m + uniform(-10m, 10m)"
config **.loRaNodes[40].**.initialY "730m + uniform(-8m, 8m)"
config **.loRaNodes[41].**.initialX "450m + uniform(-10m, 10m)"
config **.loRaNodes[41].**.initialY "730m + uniform(-8m, 8m)"
config **.loRaNodes[42].**.initialX "600m + uniform(-10m, 10m)"
config **.loRaNodes[42].**.initialY "730m + uniform(-8m, 8m)"
config **.loRaNodes[43].**.initialX "750m + uniform(-10m, 10m)"
config **.loRaNodes[43].**.initialY "730m + uniform(-8m, 8m)"
config **.loRaNodes[44].**.initialX "900m + uniform(-10m, 10m)"
config **.loRaNodes[44].**.initialY "730m + uniform(-8m, 8m)"
config **.loRaNodes[45].**.initialX "1050m + uniform(-10m, 10m)"
config **.loRaNodes[45].**.initialY "730m + uniform(-8m, 8m)"
config **.loRaNodes[46].**.initialX "1200m + uniform(-10m, 10m)"
config **.loRaNodes[46].**.initialY "730m + uniform(-8m, 8m)"
config **.loRaNodes[47].**.initialX "1350m + uniform(-10m, 10m)"
config **.loRaNodes[47].**.initialY "730m + uniform(-8m, 8m)"
config **.loRaNodes[48].**.initialX "1500m + uniform(-10m, 10m)"
config **.loRaNodes[48].**.initialY "730m + uniform(-8m, 8m)"
config **.loRaNodes[49].**.initialX "1650m + uniform(-10m, 10m)"
config **.loRaNodes[49].**.initialY "730m + uniform(-8m, 8m)"
config **.loRaNodes[50].**.initialX "300m + uniform(-10m, 10m)"
config **.loRaNodes[50].**.initialY "850m + uniform(-8m, 8m)"
config **.loRaNodes[51].**.initialX "450m + uniform(-10m, 10m)"
config **.loRaNodes[51].**.initialY "850m + uniform(-8m, 8m)"
config **.loRaNodes[52].**.initialX "600m + uniform(-10m, 10m)"
config **.loRaNodes[52].**.initialY "850m + uniform(-8m, 8m)"
config **.loRaNodes[53].**.initialX "750m + uniform(-10m, 10m)"
config **.loRaNodes[53].**.initialY "850m + uniform(-8m, 8m)"
config **.loRaNodes[54].**.initialX "900m + uniform(-10m, 10m)"
config **.loRaNodes[54].**.initialY "850m + uniform(-8m, 8m)"
config **.loRaNodes[55].**.initialX "1050m + uniform(-10m, 10m)"
config **.loRaNodes[55].**.initialY "850m + uniform(-8m, 8m)"
config **.loRaNodes[56].**.initialX "1200m + uniform(-10m, 10m)"
config **.loRaNodes[56].**.initialY "850m + uniform(-8m, 8m)"
config **.loRaNodes[57].**.initialX "1350m + uniform(-10m, 10m)"
config **.loRaNodes[57].**.initialY "850m + uniform(-8m, 8m)"
config **.loRaNodes[58].**.initialX "1500m + uniform(-10m, 10m)"
config **.loRaNodes[58].**.initialY "850m + uniform(-8m, 8m)"
config **.loRaNodes[59].**.initialX "1650m + uniform(-10m, 10m)"
config **.loRaNodes[59].**.initialY "850m + uniform(-8m, 8m)"
config **.loRaNodes[60].**.initialX "300m + uniform(-10m, 10m)"
config **.loRaNodes[60].**.initialY "970m + uniform(-8m, 8m)"
config **.loRaNodes[61].**.initialX "450m + uniform(-10m, 10m)"
config **.loRaNodes[61].**.initialY "970m + uniform(-8m, 8m)"
config **.loRaNodes[62].**.initialX "600m + uniform(-10m, 10m)"
config **.loRaNodes[62].**.initialY "970m + uniform(-8m, 8m)"
config **.loRaNodes[63].**.initialX "750m + uniform(-10m, 10m)"
config **.loRaNodes[63].**.initialY "970m + uniform(-8m, 8m)"
config **.loRaNodes[64].**.initialX "900m + uniform(-10m, 10m)"
config **.loRaNodes[64].**.initialY "970m + uniform(-8m, 8m)"
config **.loRaNodes[65].**.initialX "1050m + uniform(-10m, 10m)"
config **.loRaNodes[65].**.initialY "970m + uniform(-8m, 8m)"
config **.loRaNodes[66].**.initialX "1200m + uniform(-10m, 10m)"
config **.loRaNodes[66].**.initialY "970m + uniform(-8m, 8m)"
config **.loRaNodes[67].**.initialX "1350m + uniform(-10m, 10m)"
config **.loRaNodes[67].**.initialY "970m + uniform(-8m, 8m)"
config **.loRaNodes[68].**.initialX "1500m + uniform(-10m, 10m)"
config **.loRaNodes[68].**.initialY "970m + uniform(-8m, 8m)"
config **.loRaNodes[69].**.initialX "1650m + uniform(-10m, 10m)"
config **.loRaNodes[69].**.initialY "970m + uniform(-8m, 8m)"
config **.loRaNodes[70].**.initialX "300m + uniform(-10m, 10m)"
config **.loRaNodes[70].**.initialY "1090m + uniform(-8m, 8m)"
config **.loRaNodes[71].**.initialX "450m + uniform(-10m, 10m)"
config **.loRaNodes[71].**.initialY "1090m + uniform(-8m, 8m)"
config **.loRaNodes[72].**.initialX "600m + uniform(-10m, 10m)"
config **.loRaNodes[72].**.initialY "1090m + uniform(-8m, 8m)"
config **.loRaNodes[73].**.initialX "750m + uniform(-10m, 10m)"
config **.loRaNodes[73].**.initialY "1090m + uniform(-8m, 8m)"
config **.loRaNodes[74].**.initialX "900m + uniform(-10m, 10m)"
config **.loRaNodes[74].**.initialY "1090m + uniform(-8m, 8m)"
config **.HospitalServer.numApps 1
config **.HospitalServer.app[0].typename HospitalServerApp
config **.HospitalServer.app[0].destPort 2000
config **.HospitalServer.app[0].localPort 1000
config **.HospitalServer.app[0].adrMethod "\"avg\""
config **.HospitalServer.**.evaluateADRinServer true
config **.HospitalServer.app[0].queueSize 50
config **.HospitalServer.app[0].expo_rate_lambda 0.83
config **.loRaGateway.numUdpApps 1
config **.loRaGateway.packetForwarder.localPort 2000
config **.loRaGateway.packetForwarder.destPort 1000
config **.loRaGateway.packetForwarder.destAddresses "\"HospitalServer\""
config **.loRaGateway.**.initFromDisplayString false
config **.loRaGateway.**.initialX 544.00m
config **.loRaGateway.**.initialY 544.00m
config **.loRaNodes[*].numApps 1
config **.loRaNodes[*].app[0].typename PatientSensorApp
config **.loRaNodes[*].app[0].expo_rate_lambda 0.00175
config **.loRaNodes[*].app[0].emergencyThreshold 50
config **.loRaNodes[*].**.timeToFirstPacket exponential(24s)
config **.loRaNodes[*].**.timeToNextPacket exponential(24s)
config **.loRaNodes[*].**.numberOfPacketsToSend 0
config **.loRaNodes[*].**initialLoRaSF 12
config **.loRaNodes[*].**initialLoRaTP 14dBm
config **.loRaNodes[*].**initialLoRaBW "125 kHz"
config **.loRaNodes[*].**initialLoRaCR 4
config **.loRaNodes[*].**.initFromDisplayString false
config **.loRaNodes[*].**.evaluateADRinNode true
config **.loRaNodes[*].LoRaNic.radio.energyConsumer.typename LoRaEnergyConsumer
config **.loRaNodes[*].**.energySourceModule "\"^.IdealEpEnergyStorage\""
config **.loRaNodes[*].LoRaNic.radio.energyConsumer.configFile "xmldoc(\"energyConsumptionParam.xml\")"
config **.maxTransmissionDuration 4s
config **.energyDetection -110dBm
config **.radio.radioMediumModule "\"LoRaMedium\""
config **.minInterferenceTime 0s
config **.constraintAreaMinX 0m
config **.constraintAreaMinY 0m
config **.constraintAreaMinZ 0m
config **.constraintAreaMaxZ 0m
config **.constraintAreaMaxX 3000.0m
config **.constraintAreaMaxY 3000.0m

vector 0 LoRaNetworkTest.HospitalServer.app[0] queueLength:vector ETV
attr recordingmode vector
attr title "Total queue length"
vector 1 LoRaNetworkTest.HospitalServer.app[0] urgentWaitTime:vector ETV
attr recordingmode vector
attr title "Urgent wait time (s)"
vector 2 LoRaNetworkTest.HospitalServer.app[0] urgentEndToEndDelay:vector ETV
attr recordingmode vector
attr title "Urgent end-to-end delay (s)"
vector 3 LoRaNetworkTest.loRaNodes[36].app[0] emergencyVariate:vector ETV
attr recordingmode vector
attr title "Exponential variate samples"
vector 4 LoRaNetworkTest.HospitalServer.app[0] normalWaitTime:vector ETV
attr recordingmode vector
attr title "Normal wait time (s)"
vector 5 LoRaNetworkTest.HospitalServer.app[0] normalEndToEndDelay:vector ETV
attr recordingmode vector
attr title "Normal end-to-end delay (s)"
vector 6 LoRaNetworkTest.loRaNodes[2].app[0] emergencyVariate:vector ETV
attr recordingmode vector
attr title "Exponential variate samples"
vector 7 LoRaNetworkTest.loRaNodes[71].app[0] emergencyVariate:vector ETV
attr recordingmode vector
attr title "Exponential variate samples"
vector 8 LoRaNetworkTest.loRaNodes[8].app[0] emergencyVariate:vector ETV
attr recordingmode vector
attr title "Exponential variate samples"
vector 9 LoRaNetworkTest.loRaNodes[20].app[0] emergencyVariate:vector ETV
attr recordingmode vector
attr title "Exponential variate samples"
vector 10 LoRaNetworkTest.loRaNodes[72].app[0] emergencyVariate:vector ETV
attr recordingmode vector
attr title "Exponential variate samples"
vector 11 LoRaNetworkTest.loRaNodes[52].app[0] emergencyVariate:vector ETV
attr recordingmode vector
attr title "Exponential variate samples"
vector 12 LoRaNetworkTest.loRaNodes[48].app[0] emergencyVariate:vector ETV
attr recordingmode vector
attr title "Exponential variate samples"
vector 13 LoRaNetworkTest.loRaNodes[11].app[0] emergencyVariate:vector ETV
attr recordingmode vector
attr title "Exponential variate samples"
vector 14 LoRaNetworkTest.loRaNodes[55].app[0] emergencyVariate:vector ETV
attr recordingmode vector
attr title "Exponential variate samples"
vector 15 LoRaNetworkTest.loRaNodes[14].app[0] emergencyVariate:vector ETV
attr recordingmode vector
attr title "Exponential variate samples"
vector 16 LoRaNetworkTest.loRaNodes[64].app[0] emergencyVariate:vector ETV
attr recordingmode vector
attr title "Exponential variate samples"
vector 17 LoRaNetworkTest.loRaNodes[56].app[0] emergencyVariate:vector ETV
attr recordingmode vector
attr title "Exponential variate samples"
vector 18 LoRaNetworkTest.loRaNodes[37].app[0] emergencyVariate:vector ETV
attr recordingmode vector
attr title "Exponential variate samples"
vector 19 LoRaNetworkTest.loRaNodes[24].app[0] emergencyVariate:vector ETV
attr recordingmode vector
attr title "Exponential variate samples"
vector 20 LoRaNetworkTest.loRaNodes[70].app[0] emergencyVariate:vector ETV
attr recordingmode vector
attr title "Exponential variate samples"
vector 21 LoRaNetworkTest.loRaNodes[62].app[0] emergencyVariate:vector ETV
attr recordingmode vector
attr title "Exponential variate samples"
vector 22 LoRaNetworkTest.loRaNodes[65].app[0] emergencyVariate:vector ETV
attr recordingmode vector
attr title "Exponential variate samples"
vector 23 LoRaNetworkTest.loRaNodes[6].app[0] emergencyVariate:vector ETV
attr recordingmode vector
attr title "Exponential variate samples"
vector 24 LoRaNetworkTest.loRaNodes[33].app[0] emergencyVariate:vector ETV
attr recordingmode vector
attr title "Exponential variate samples"
vector 25 LoRaNetworkTest.loRaNodes[39].app[0] emergencyVariate:vector ETV
attr recordingmode vector
attr title "Exponential variate samples"
vector 26 LoRaNetworkTest.loRaNodes[31].app[0] emergencyVariate:vector ETV
attr recordingmode vector
attr title "Exponential variate samples"
vector 27 LoRaNetworkTest.loRaNodes[27].app[0] emergencyVariate:vector ETV
attr recordingmode vector
attr title "Exponential variate samples"
vector 28 LoRaNetworkTest.loRaNodes[42].app[0] emergencyVariate:vector ETV
attr recordingmode vector
attr title "Exponential variate samples"
vector 29 LoRaNetworkTest.loRaNodes[40].app[0] emergencyVariate:vector ETV
attr recordingmode vector
attr title "Exponential variate samples"
vector 30 LoRaNetworkTest.loRaNodes[19].app[0] emergencyVariate:vector ETV
attr recordingmode vector
attr title "Exponential variate samples"
vector 31 LoRaNetworkTest.loRaNodes[67].app[0] emergencyVariate:vector ETV
attr recordingmode vector
attr title "Exponential variate samples"
vector 32 LoRaNetworkTest.loRaNodes[63].app[0] emergencyVariate:vector ETV
attr recordingmode vector
attr title "Exponential variate samples"
vector 33 LoRaNetworkTest.loRaNodes[5].app[0] emergencyVariate:vector ETV
attr recordingmode vector
attr title "Exponential variate samples"
vector 34 LoRaNetworkTest.loRaNodes[29].app[0] emergencyVariate:vector ETV
attr recordingmode vector
attr title "Exponential variate samples"
vector 35 LoRaNetworkTest.loRaNodes[3].app[0] emergencyVariate:vector ETV
attr recordingmode vector
attr title "Exponential variate samples"
vector 36 LoRaNetworkTest.loRaNodes[43].app[0] emergencyVariate:vector ETV
attr recordingmode vector
attr title "Exponential variate samples"
vector 37 LoRaNetworkTest.loRaNodes[54].app[0] emergencyVariate:vector ETV
attr recordingmode vector
attr title "Exponential variate samples"
vector 38 LoRaNetworkTest.loRaNodes[69].app[0] emergencyVariate:vector ETV
attr recordingmode vector
attr title "Exponential variate samples"
vector 39 LoRaNetworkTest.loRaNodes[68].app[0] emergencyVariate:vector ETV
attr recordingmode vector
attr title "Exponential variate samples"
vector 40 LoRaNetworkTest.loRaNodes[9].app[0] emergencyVariate:vector ETV
attr recordingmode vector
attr title "Exponential variate samples"
vector 41 LoRaNetworkTest.loRaNodes[4].app[0] emergencyVariate:vector ETV
attr recordingmode vector
attr title "Exponential variate samples"
vector 42 LoRaNetworkTest.loRaNodes[74].app[0] emergencyVariate:vector ETV
attr recordingmode vector
attr title "Exponential variate samples"
vector 43 LoRaNetworkTest.loRaNodes[23].app[0] emergencyVariate:vector ETV
attr recordingmode vector
attr title "Exponential variate samples"
vector 44 LoRaNetworkTest.loRaNodes[35].app[0] emergencyVariate:vector ETV
attr recordingmode vector
attr title "Exponential variate samples"
vector 45 LoRaNetworkTest.loRaNodes[32].app[0] emergencyVariate:vector ETV
attr recordingmode vector
attr title "Exponential variate samples"
vector 46 LoRaNetworkTest.loRaNodes[10].app[0] emergencyVariate:vector ETV
attr recordingmode vector
attr title "Exponential variate samples"
vector 47 LoRaNetworkTest.loRaNodes[16].app[0] emergencyVariate:vector ETV
attr recordingmode vector
attr title "Exponential variate samples"
vector 48 LoRaNetworkTest.loRaNodes[46].app[0] emergencyVariate:vector ETV
attr recordingmode vector
attr title "Exponential variate samples"
vector 49 LoRaNetworkTest.loRaNodes[60].app[0] emergencyVariate:vector ETV
attr recordingmode vector
attr title "Exponential variate samples"
vector 50 LoRaNetworkTest.loRaNodes[34].app[0] emergencyVariate:vector ETV
attr recordingmode vector
attr title "Exponential variate samples"
vector 51 LoRaNetworkTest.loRaNodes[50].app[0] emergencyVariate:vector ETV
attr recordingmode vector
attr title "Exponential variate samples"
vector 52 LoRaNetworkTest.loRaNodes[41].app[0] emergencyVariate:vector ETV
attr recordingmode vector
attr title "Exponential variate samples"
vector 53 LoRaNetworkTest.loRaNodes[15].app[0] emergencyVariate:vector ETV
attr recordingmode vector
attr title "Exponential variate samples"
vector 54 LoRaNetworkTest.loRaNodes[59].app[0] emergencyVariate:vector ETV
attr recordingmode vector
attr title "Exponential variate samples"
vector 55 LoRaNetworkTest.loRaNodes[21].app[0] emergencyVariate:vector ETV
attr recordingmode vector
attr title "Exponential variate samples"
vector 56 LoRaNetworkTest.loRaNodes[57].app[0] emergencyVariate:vector ETV
attr recordingmode vector
attr title "Exponential variate samples"
vector 57 LoRaNetworkTest.loRaNodes[53].app[0] emergencyVariate:vector ETV
attr recordingmode vector
attr title "Exponential variate samples"
vector 58 LoRaNetworkTest.loRaNodes[25].app[0] emergencyVariate:vector ETV
attr recordingmode vector
attr title "Exponential variate samples"
vector 59 LoRaNetworkTest.loRaNodes[61].app[0] emergencyVariate:vector ETV
attr recordingmode vector
attr title "Exponential variate samples"
vector 60 LoRaNetworkTest.loRaNodes[12].app[0] emergencyVariate:vector ETV
attr recordingmode vector
attr title "Exponential variate samples"
vector 61 LoRaNetworkTest.loRaNodes[18].app[0] emergencyVariate:vector ETV
attr recordingmode vector
attr title "Exponential variate samples"
vector 62 LoRaNetworkTest.loRaNodes[49].app[0] emergencyVariate:vector ETV
attr recordingmode vector
attr title "Exponential variate samples"
vector 63 LoRaNetworkTest.loRaNodes[30].app[0] emergencyVariate:vector ETV
attr recordingmode vector
attr title "Exponential variate samples"
vector 64 LoRaNetworkTest.loRaNodes[51].app[0] emergencyVariate:vector ETV
attr recordingmode vector
attr title "Exponential variate samples"
vector 65 LoRaNetworkTest.loRaNodes[26].app[0] emergencyVariate:vector ETV
attr recordingmode vector
attr title "Exponential variate samples"
vector 66 LoRaNetworkTest.loRaNodes[58].app[0] emergencyVariate:vector ETV
attr recordingmode vector
attr title "Exponential variate samples"
vector 67 LoRaNetworkTest.loRaNodes[13].app[0] emergencyVariate:vector ETV
attr recordingmode vector
attr title "Exponential variate samples"
vector 68 LoRaNetworkTest.loRaNodes[1].app[0] emergencyVariate:vector ETV
attr recordingmode vector
attr title "Exponential variate samples"
vector 69 LoRaNetworkTest.loRaNodes[7].app[0] emergencyVariate:vector ETV
attr recordingmode vector
attr title "Exponential variate samples"
vector 70 LoRaNetworkTest.loRaNodes[17].app[0] emergencyVariate:vector ETV
attr recordingmode vector
attr title "Exponential variate samples"
vector 71 LoRaNetworkTest.loRaNodes[0].app[0] emergencyVariate:vector ETV
attr recordingmode vector
attr title "Exponential variate samples"
vector 72 LoRaNetworkTest.loRaNodes[45].app[0] emergencyVariate:vector ETV
attr recordingmode vector
attr title "Exponential variate samples"
vector 73 LoRaNetworkTest.loRaNodes[66].app[0] emergencyVariate:vector ETV
attr recordingmode vector
attr title "Exponential variate samples"
vector 74 LoRaNetworkTest.loRaNodes[44].app[0] emergencyVariate:vector ETV
attr recordingmode vector
attr title "Exponential variate samples"
vector 75 LoRaNetworkTest.loRaNodes[73].app[0] emergencyVariate:vector ETV
attr recordingmode vector
attr title "Exponential variate samples"
vector 76 LoRaNetworkTest.loRaNodes[28].app[0] emergencyVariate:vector ETV
attr recordingmode vector
attr title "Exponential variate samples"
vector 77 LoRaNetworkTest.loRaNodes[38].app[0] emergencyVariate:vector ETV
attr recordingmode vector
attr title "Exponential variate samples"
vector 78 LoRaNetworkTest.loRaNodes[47].app[0] emergencyVariate:vector ETV
attr recordingmode vector
attr title "Exponential variate samples"
vector 79 LoRaNetworkTest.loRaNodes[22].app[0] emergencyVariate:vector ETV
attr recordingmode vector
attr title "Exponential variate samples"
0	10659	61.14351447417	1
0	10659	61.14351447417	0
0	10967	71.49565012767	1
0	10967	71.49565012767	0
0	11112	80.62578372084	1
0	11112	80.62578372084	0
0	11598	87.96068440409	1
0	11598	87.96068440409	0
0	11885	90.89590193271	1
0	11902	90.93366006743	0
0	12357	138.13369581967	1
0	12357	138.13369581967	0
0	12538	181.70206456111	1
0	12538	181.70206456111	0
0	13111	186.61874759311	1
0	13111	186.61874759311	0
0	14218	193.40649177001	1
0	14218	193.40649177001	0
0	14881	198.40666580808	1
0	14881	198.40666580808	0
0	15481	202.70885527219	1
0	15481	202.70885527219	0
0	15680	208.57543276748	1
0	15680	208.57543276748	0
0	16226	210.69359798133	1
0	16480	211.28700711836	0
0	16981	215.25134947075	1
0	16981	215.25134947075	0
0	17175	217.4057856979	1
0	17175	217.4057856979	0
0	17791	220.65206471038	1
0	17791	220.65206471038	0
0	18606	224.29136079548	1
0	18723	224.92901799427	0
0	19418	228.12337617989	1
0	19418	228.12337617989	0
0	20072	230.51313032887	1
0	20072	230.51313032887	0
0	20906	236.83104431538	1
0	20906	236.83104431538	0
0	21480	239.74307992387	1
0	21480	239.74307992387	0
0	21911	243.23898094963	1
0	21911	243.23898094963	0
0	22214	245.60909177438	1
0	22214	245.60909177438	0
0	23300	259.93311677054	1
0	23300	259.93311677054	0
0	23625	264.4112299908	1
0	23625	264.4112299908	0
0	23815	273.44422271856	1
0	23815	273.44422271856	0
0	24297	277.58085725368	1
0	24297	277.58085725368	0
0	24469	288.89731795822	1
0	24469	288.89731795822	0
0	24807	333.03445296842	1
0	24807	333.03445296842	0
0	25331	366.70056461941	1
0	25331	366.70056461941	0
0	25646	370.64182166325	1
0	25646	370.64182166325	0
0	26009	375.21251749739	1
0	26009	375.21251749739	0
0	27023	383.06787330026	1
0	27023	383.06787330026	0
0	27756	388.61814113133	1
0	27756	388.61814113133	0
0	28508	396.22857306941	1
0	28508	396.22857306941	0
0	29212	401.00648616867	1
0	29212	401.00648616867	0
0	29623	403.6713085645	1
0	29623	403.6713085645	0
0	29919	406.27052037311	1
0	29919	406.27052037311	0
0	30404	409.30669665815	1
0	30404	409.30669665815	0
0	31202	412.05729251229	1
0	31643	414.01426860077	0
0	32065	416.53726625157	1
0	32068	416.56353111782	0
0	32307	420.2858461487	1
0	32307	420.2858461487	0
0	32876	425.15859281527	1
0	32876	425.15859281527	0
0	33254	428.35708433529	1
0	33254	428.35708433529	0
0	33575	433.3825837315	1
0	33575	433.3825837315	0
0	33862	437.06372574876	1
0	33862	437.06372574876	0
0	34083	438.77727380355	1
0	34083	438.77727380355	0
0	34742	456.44997207377	1
0	34742	456.44997207377	0
0	35026	460.77169095776	1
0	35026	460.77169095776	0
0	35264	462.72610125178	1
0	35264	462.72610125178	0
0	35618	465.22864136927	1
0	35618	465.22864136927	0
0	36180	470.29423168441	1
0	36180	470.29423168441	0
0	36560	485.51095718183	1
0	36560	485.51095718183	0
0	36873	496.57170199562	1
0	36873	496.57170199562	0
0	37439	514.85601046582	1
0	37439	514.85601046582	0
0	37581	544.19507372551	1
0	37581	544.19507372551	0
0	38322	554.86323877192	1
0	38322	554.86323877192	0
0	38595	558.34075137767	1
0	38595	558.34075137767	0
0	39177	572.72818004351	1
0	39177	572.72818004351	0
0	40132	577.52356213556	1
0	40132	577.52356213556	0
0	40905	585.77039134	1
0	40905	585.77039134	0
0	42564	595.4228770081	1
0	42564	595.4228770081	0
0	43697	599.81243936478	1
0	43697	599.81243936478	0
0	44199	603.61089618593	1
0	44199	603.61089618593	0
0	44552	606.53426558734	1
0	44552	606.53426558734	0
0	44901	611.06048319539	1
0	44901	611.06048319539	0
0	45149	613.43069762578	1
0	45149	613.43069762578	0
0	45438	618.18510621007	1
0	45438	618.18510621007	0
0	46697	639.40489462013	1
0	46697	639.40489462013	0
0	47410	645.44067007413	1
0	47410	645.44067007413	0
0	47539	647.09583942253	1
0	47539	647.09583942253	0
0	47994	659.85171111854	1
0	47994	659.85171111854	0
0	48194	666.46844227175	1
0	48194	666.46844227175	0
0	48364	673.44146524718	1
0	48364	673.44146524718	0
0	48812	684.46921881372	1
0	48812	684.46921881372	0
0	49198	696.15076395356	1
0	49198	696.15076395356	0
0	49705	724.53728633378	1
0	49705	724.53728633378	0
0	50207	739.73967308141	1
0	50207	739.73967308141	0
0	50414	741.75131620062	1
0	50414	741.75131620062	0
0	50664	746.27795687803	1
0	50664	746.27795687803	0
0	52145	764.4721339484	1
0	52145	764.4721339484	0
0	52963	770.13896216849	1
0	52963	770.13896216849	0
0	53477	773.55146831007	1
0	53477	773.55146831007	0
0	54500	779.39673900726	1
0	54500	779.39673900726	0
0	55154	785.96440825515	1
0	55154	785.96440825515	0
0	55739	788.71409035764	1
0	56022	791.32852583846	0
0	56183	793.97158493007	1
0	56183	793.97158493007	0
0	56699	798.77142723398	1
0	56699	798.77142723398	0
0	57120	801.49721308851	1
0	57297	809.670230664	0
0	57382	809.68449627658	1
0	57704	814.08804071094	2
0	57806	814.59727168026	1
0	57808	815.16332918515	0
0	57906	815.780209131	1
0	57906	815.780209131	0
0	58529	822.88469777162	1
0	58529	822.88469777162	0
0	58888	827.23587270557	1
0	58888	827.23587270557	0
0	59148	831.72844491616	1
0	59148	831.72844491616	0
0	59870	841.43689277512	1
0	59870	841.43689277512	0
0	60094	844.97688496323	1
0	60094	844.97688496323	0
0	60742	880.84070916509	1
0	60742	880.84070916509	0
0	61433	885.72454624545	1
0	61433	885.72454624545	0
0	61745	903.28667047515	1
0	61745	903.28667047515	0
0	61966	908.27412215662	1
0	61966	908.27412215662	0
0	62185	913.49094116949	1
0	62185	913.49094116949	0
0	62558	920.14953651502	1
0	62558	920.14953651502	0
0	63111	932.89838806734	1
0	63111	932.89838806734	0
0	63604	941.87949089569	1
0	63604	941.87949089569	0
0	63889	943.64716797916	1
0	63889	943.64716797916	0
0	64157	945.65256701944	1
0	64157	945.65256701944	0
0	64344	948.12318324193	1
0	64344	948.12318324193	0
0	64651	951.42381759693	1
0	64651	951.42381759693	0
0	65798	959.44597182192	1
0	65798	959.44597182192	0
0	66342	961.77643515657	1
0	66342	961.77643515657	0
0	66648	967.1120087492	1
0	66648	967.1120087492	0
0	67121	971.33874989161	1
0	67162	971.76289811559	0
0	67553	980.07788989959	1
0	67553	980.07788989959	0
0	67983	986.32828320736	1
0	67983	986.32828320736	0
0	68320	991.41157038828	1
0	68320	991.41157038828	0
0	69131	999.28953516097	1
0	69131	999.28953516097	0
0	69762	1008.99426122166	1
0	69762	1008.99426122166	0
0	70305	1015.36224953792	1
0	70305	1015.36224953792	0
0	70889	1018.48659531865	1
0	70889	1018.48659531865	0
0	71333	1023.22890347917	1
0	71333	1023.22890347917	0
0	71888	1040.75068403548	1
0	71888	1040.75068403548	0
0	72507	1056.52694641818	1
0	72507	1056.52694641818	0
0	72961	1063.38566127857	1
0	72961	1063.38566127857	0
0	73470	1080.86837778821	1
0	73470	1080.86837778821	0
0	73653	1085.71847102074	1
0	73653	1085.71847102074	0
0	73907	1089.525883671	1
0	73907	1089.525883671	0
0	74520	1098.5305218133	1
0	74520	1098.5305218133	0
0	74675	1103.45388907251	1
0	74675	1103.45388907251	0
0	75019	1109.7093796889	1
0	75019	1109.7093796889	0
0	75846	1120.49213031871	1
0	75846	1120.49213031871	0
0	76173	1128.94224106814	1
0	76173	1128.94224106814	0
0	76737	1138.363467537	1
0	76737	1138.363467537	0
0	77510	1145.07789067525	1
0	77510	1145.07789067525	0
0	77971	1153.14982629884	1
0	77971	1153.14982629884	0
0	78231	1165.13460236912	1
0	78231	1165.13460236912	0
0	78925	1169.61586978023	1
0	78925	1169.61586978023	0
0	79196	1173.24887909015	1
0	79196	1173.24887909015	0
0	79729	1180.17959848891	1
0	79729	1180.17959848891	0
0	80044	1184.43057752048	1
0	80044	1184.43057752048	0
0	80545	1189.92692289848	1
0	80545	1189.92692289848	0
0	81605	1195.53447315748	1
0	81605	1195.53447315748	0
0	82372	1203.36603385967	1
0	82372	1203.36603385967	0
0	82552	1207.20354002191	1
0	82552	1207.20354002191	0
0	83343	1219.08695577038	1
0	83343	1219.08695577038	0
0	83554	1229.36955453596	1
0	83554	1229.36955453596	0
0	83732	1234.58830485022	1
0	83732	1234.58830485022	0
0	83915	1239.13866892995	1
0	83915	1239.13866892995	0
0	84097	1242.8211604092	1
0	84097	1242.8211604092	0
0	84413	1245.87626814286	1
0	84413	1245.87626814286	0
0	85125	1261.92406017046	1
0	85125	1261.92406017046	0
0	85430	1268.61843495499	1
0	85430	1268.61843495499	0
0	85764	1271.8476003539	1
0	85764	1271.8476003539	0
0	86107	1282.5220991569	1
0	86107	1282.5220991569	0
0	86298	1284.62985739173	1
0	86413	1287.47084922264	0
0	86706	1292.06988398415	1
0	86706	1292.06988398415	0
0	87007	1296.0301140744	1
0	87007	1296.0301140744	0
0	87174	1301.91545559311	1
0	87174	1301.91545559311	0
0	87332	1307.53623710389	1
0	87332	1307.53623710389	0
0	87828	1313.56284421309	1
0	87828	1313.56284421309	0
0	88414	1318.87286986853	1
0	88414	1318.87286986853	0
0	89012	1327.33049027617	1
0	89012	1327.33049027617	0
0	89501	1334.57395224579	1
0	89501	1334.57395224579	0
0	89827	1338.25868537674	1
0	89827	1338.25868537674	0
0	90523	1352.25437288358	1
0	90523	1352.25437288358	0
0	90755	1355.33036963437	1
0	90755	1355.33036963437	0
0	91245	1358.70650104933	1
0	91245	1358.70650104933	0
0	91675	1361.48770440644	1
0	91675	1361.48770440644	0
0	92734	1370.32730400417	1
0	92734	1370.32730400417	0
0	93586	1379.32949181144	1
0	93586	1379.32949181144	0
0	93879	1383.34938753924	1
0	93879	1383.34938753924	0
0	94060	1386.19245321944	1
0	94060	1386.19245321944	0
0	94321	1389.72825643178	1
0	94321	1389.72825643178	0
0	94659	1394.11980857252	1
0	94659	1394.11980857252	0
0	94964	1406.76309374349	1
0	94964	1406.76309374349	0
0	95344	1414.86768453277	1
0	95344	1414.86768453277	0
0	96676	1443.44945156612	1
0	96676	1443.44945156612	0
0	96968	1445.6448209714	1
0	96968	1445.6448209714	0
0	97379	1457.25415187433	1
0	97379	1457.25415187433	0
0	97542	1460.87961103002	1
0	97542	1460.87961103002	0
0	97735	1463.78587896474	1
0	97735	1463.78587896474	0
0	98069	1471.95727152896	1
0	98069	1471.95727152896	0
0	98714	1479.07806237404	1
0	98714	1479.07806237404	0
0	99457	1499.23252059719	1
0	99457	1499.23252059719	0
0	99899	1502.43330273816	1
0	99899	1502.43330273816	0
0	100202	1504.65816565457	1
0	100202	1504.65816565457	0
0	100679	1508.22800378598	1
0	100679	1508.22800378598	0
0	101397	1513.52874238593	1
0	101397	1513.52874238593	0
0	102102	1524.06229216059	1
0	102102	1524.06229216059	0
0	102729	1531.65948463096	1
0	102729	1531.65948463096	0
0	103394	1542.72153017861	1
0	103394	1542.72153017861	0
0	103611	1548.09610018402	1
0	103611	1548.09610018402	0
0	104013	1554.32460219971	1
0	104013	1554.32460219971	0
0	105645	1572.32578078173	1
0	105645	1572.32578078173	0
0	105908	1576.614409493	1
0	105908	1576.614409493	0
0	106402	1585.79619831538	1
0	106402	1585.79619831538	0
0	106861	1594.64226887623	1
0	106861	1594.64226887623	0
0	107046	1596.57458257422	1
0	107046	1596.57458257422	0
0	107242	1598.4628015212	1
0	107242	1598.4628015212	0
0	107610	1608.87220828164	1
0	107610	1608.87220828164	0
0	108374	1626.7059082363	1
0	108374	1626.7059082363	0
0	109010	1635.51017984982	1
0	109010	1635.51017984982	0
0	109258	1642.02260864746	1
0	109258	1642.02260864746	0
0	109515	1644.40962355052	1
0	109515	1644.40962355052	0
0	110417	1660.6421859656	1
0	110417	1660.6421859656	0
0	110929	1668.62099347125	1
0	110929	1668.62099347125	0
0	111096	1677.80703390505	1
0	111096	1677.80703390505	0
0	111351	1681.63044987765	1
0	111351	1681.63044987765	0
0	111729	1684.36433005972	1
0	111729	1684.36433005972	0
0	112187	1688.54540879642	1
0	112187	1688.54540879642	0
0	112471	1695.57732606541	1
0	112471	1695.57732606541	0
0	112793	1701.12881763887	1
0	112793	1701.12881763887	0
0	113162	1704.8384464888	1
0	113162	1704.8384464888	0
0	113789	1710.47548903343	1
0	113789	1710.47548903343	0
0	114327	1713.65015023212	1
0	114327	1713.65015023212	0
0	114681	1722.83749428992	1
0	114681	1722.83749428992	0
0	115300	1728.85735314937	1
0	115300	1728.85735314937	0
0	115518	1732.3512628008	1
0	115758	1733.58497133824	0
0	116149	1735.69375354231	1
0	116252	1737.05825097658	0
0	116356	1738.61232208215	1
0	116356	1738.61232208215	0
0	116593	1741.72326109413	1
0	116593	1741.72326109413	0
0	117071	1751.04502822938	1
0	117071	1751.04502822938	0
0	117610	1758.80315593571	1
0	117610	1758.80315593571	0
0	118060	1762.78282974924	1
0	118060	1762.78282974924	0
0	118398	1764.59282696218	1
0	118398	1764.59282696218	0
0	118629	1768.73273513804	1
0	118629	1768.73273513804	0
0	118894	1771.55447102451	1
0	118894	1771.55447102451	0
0	119086	1773.36866990814	1
0	119086	1773.36866990814	0
0	119449	1787.13312765909	1
0	119449	1787.13312765909	0
0	119597	1790.32597011949	1
0	119597	1790.32597011949	0
0	120207	1814.63689319369	1
0	120207	1814.63689319369	0
0	120591	1821.90367074017	1
0	120591	1821.90367074017	0
0	120773	1824.48169978398	1
0	120773	1824.48169978398	0
0	121595	1842.23503178695	1
0	121595	1842.23503178695	0
0	121931	1845.51666516915	1
0	121931	1845.51666516915	0
0	122426	1851.87234995699	1
0	122426	1851.87234995699	0
0	122973	1860.67746898868	1
0	122973	1860.67746898868	0
0	123473	1867.28788367028	1
0	123473	1867.28788367028	0
0	123635	1869.77354230802	1
0	123635	1869.77354230802	0
0	124017	1871.66166719336	1
0	124172	1872.40786913323	0
0	125186	1884.91354724201	1
0	125186	1884.91354724201	0
0	125778	1891.26691265806	1
0	125778	1891.26691265806	0
0	126000	1893.55670899142	1
0	126000	1893.55670899142	0
0	126155	1898.02430367136	1
0	126155	1898.02430367136	0
0	126650	1903.1228645728	1
0	126650	1903.1228645728	0
0	126915	1905.23060798234	1
0	126915	1905.23060798234	0
0	127252	1908.28593168433	1
0	127252	1908.28593168433	0
0	127691	1912.12839776318	1
0	127704	1912.90790433795	0
0	128347	1932.15398964976	1
0	128347	1932.15398964976	0
0	128747	1936.66404546432	1
0	128747	1936.66404546432	0
0	129096	1939.12443217481	1
0	129096	1939.12443217481	0
0	129842	1950.97125606086	1
0	129842	1950.97125606086	0
0	130170	1953.26180995692	1
0	130283	1954.71885011407	0
0	130341	1955.1507592357	1
0	130341	1955.1507592357	0
0	131034	1961.96254874156	1
0	131034	1961.96254874156	0
0	131363	1968.85144299513	1
0	131363	1968.85144299513	0
0	131538	1977.84863632128	1
0	131538	1977.84863632128	0
0	131713	1981.45833567012	1
0	131713	1981.45833567012	0
0	132087	1990.10674198691	1
0	132087	1990.10674198691	0
0	132777	2008.00657267523	1
0	132777	2008.00657267523	0
0	133239	2019.27089330338	1
0	133239	2019.27089330338	0
0	133689	2024.39472289021	1
0	133689	2024.39472289021	0
0	133909	2027.29400419253	1
0	133909	2027.29400419253	0
0	134575	2039.73257464873	1
0	134575	2039.73257464873	0
0	135413	2051.11062603307	1
0	135413	2051.11062603307	0
0	135808	2058.57230546044	1
0	135808	2058.57230546044	0
0	136610	2062.08612747301	1
0	136610	2062.08612747301	0
0	137082	2068.63719127107	1
0	137082	2068.63719127107	0
0	137238	2070.64303856712	1
0	137238	2070.64303856712	0
0	137908	2080.08604039786	1
0	137908	2080.08604039786	0
0	138187	2082.72474374724	1
0	138187	2082.72474374724	0
0	138577	2084.81081070702	1
0	138689	2086.35589481872	0
0	138916	2089.66013537595	1
0	138916	2089.66013537595	0
0	139133	2092.49955882112	1
0	139133	2092.49955882112	0
0	139447	2096.02311284911	1
0	139447	2096.02311284911	0
0	139633	2102.38035818085	1
0	139633	2102.38035818085	0
0	139971	2105.70346042039	1
0	139971	2105.70346042039	0
0	140654	2114.03857637222	1
0	140654	2114.03857637222	0
0	141046	2118.44576174197	1
0	141046	2118.44576174197	0
0	141476	2126.32968644342	1
0	141476	2126.32968644342	0
0	141710	2128.54761339747	1
0	141710	2128.54761339747	0
0	141872	2135.25517133539	1
0	141872	2135.25517133539	0
0	142607	2142.79789360355	1
0	142607	2142.79789360355	0
0	143427	2162.60518175852	1
0	143427	2162.60518175852	0
0	143834	2167.34345763462	1
0	143834	2167.34345763462	0
0	144172	2175.35798927477	1
0	144172	2175.35798927477	0
0	144353	2180.56150236757	1
0	144353	2180.56150236757	0
0	144535	2189.06042399973	1
0	144535	2189.06042399973	0
0	144748	2194.44980770572	1
0	144748	2194.44980770572	0
0	144898	2198.89862516198	1
0	144898	2198.89862516198	0
0	145390	2204.37164298545	1
0	145390	2204.37164298545	0
0	145929	2212.95285630656	1
0	145929	2212.95285630656	0
0	146098	2214.74050600078	1
0	146098	2214.74050600078	0
0	146612	2224.21182801706	1
0	146612	2224.21182801706	0
0	147797	2238.21623743145	1
0	147797	2238.21623743145	0
0	148117	2240.6517867871	1
0	148117	2240.6517867871	0
0	148502	2242.57487001365	1
0	148502	2242.57487001365	0
0	148731	2246.47051079297	1
0	148731	2246.47051079297	0
0	149621	2254.7675061951	1
0	149621	2254.7675061951	0
0	149768	2256.53175846273	1
0	149768	2256.53175846273	0
0	149968	2261.84016984792	1
0	149968	2261.84016984792	0
0	150297	2264.08364847625	1
0	150297	2264.08364847625	0
0	150952	2270.38188741373	1
0	150952	2270.38188741373	0
0	151311	2275.93561601792	1
0	151311	2275.93561601792	0
0	151717	2290.00475490802	1
0	151717	2290.00475490802	0
0	152129	2297.07568697263	1
0	152129	2297.07568697263	0
0	152943	2303.55831377854	1
0	152943	2303.55831377854	0
0	153170	2306.57447333818	1
0	153170	2306.57447333818	0
0	153431	2310.05364942411	1
0	153431	2310.05364942411	0
0	154059	2325.10537429289	1
0	154059	2325.10537429289	0
0	154513	2330.76626477244	1
0	154513	2330.76626477244	0
0	154827	2334.14302929486	1
0	154827	2334.14302929486	0
0	155663	2344.05424798623	1
0	155663	2344.05424798623	0
0	155980	2356.74872339161	1
0	155980	2356.74872339161	0
0	156347	2366.38087595442	1
0	156347	2366.38087595442	0
0	156652	2370.94092445814	1
0	156652	2370.94092445814	0
0	157777	2395.24934138587	1
0	157777	2395.24934138587	0
0	158160	2405.72016989144	1
0	158160	2405.72016989144	0
0	158456	2409.59565371484	1
0	158456	2409.59565371484	0
0	158693	2411.47401560305	1
0	158693	2411.47401560305	0
0	158978	2415.19017851024	1
0	158978	2415.19017851024	0
0	159636	2429.14880051685	1
0	159636	2429.14880051685	0
0	160325	2433.63123660417	1
0	160325	2433.63123660417	0
0	160988	2439.04560534504	1
0	160988	2439.04560534504	0
0	161489	2442.8163299416	1
0	161489	2442.8163299416	0
0	161841	2445.66334889634	1
0	161841	2445.66334889634	0
0	162041	2452.81922155063	1
0	162041	2452.81922155063	0
0	162390	2456.02630589575	1
0	162390	2456.02630589575	0
0	162563	2458.36862595521	1
0	162563	2458.36862595521	0
0	162884	2464.44268768826	1
0	162884	2464.44268768826	0
0	163539	2469.17173708137	1
0	163539	2469.17173708137	0
0	164877	2492.22199956763	1
0	164877	2492.22199956763	0
0	165193	2503.05981472972	1
0	165193	2503.05981472972	0
0	166386	2519.67744666053	1
0	166386	2519.67744666053	0
0	166556	2529.64020474889	1
0	166556	2529.64020474889	0
0	166987	2536.86234626087	1
0	166987	2536.86234626087	0
0	167523	2541.79353227117	1
0	167523	2541.79353227117	0
0	167877	2547.1029923597	1
0	167877	2547.1029923597	0
0	168622	2552.51819901882	1
0	168622	2552.51819901882	0
0	168897	2554.59771087153	1
0	168912	2555.87023847112	0
0	169213	2564.78748599527	1
0	169213	2564.78748599527	0
0	169591	2569.19817645539	1
0	169591	2569.19817645539	0
0	170564	2594.27213447207	1
0	170564	2594.27213447207	0
0	171574	2604.21955334156	1
0	171574	2604.21955334156	0
0	172106	2618.27061007429	1
0	172106	2618.27061007429	0
0	172650	2620.70701468972	1
0	172650	2620.70701468972	0
0	172840	2623.62223390024	1
0	172840	2623.62223390024	0
0	173031	2628.57834758613	1
0	173031	2628.57834758613	0
0	173307	2630.61043303369	1
0	173307	2630.61043303369	0
0	173645	2632.99837238437	1
0	173668	2633.84194843268	0
0	174119	2640.04884555145	1
0	174119	2640.04884555145	0
0	174649	2643.6184165927	1
0	174649	2643.6184165927	0
0	174993	2645.85279290053	1
0	174993	2645.85279290053	0
0	175535	2657.66454950368	1
0	175535	2657.66454950368	0
0	176253	2671.49487614449	1
0	176253	2671.49487614449	0
0	176453	2673.27333238375	1
0	176460	2674.38021336205	0
0	176680	2677.06167007961	1
0	176680	2677.06167007961	0
0	177021	2681.57560149362	1
0	177021	2681.57560149362	0
0	178072	2697.2477712554	1
0	178072	2697.2477712554	0
0	178520	2703.96167751417	1
0	178520	2703.96167751417	0
0	179262	2720.77793948512	1
0	179262	2720.77793948512	0
0	180861	2746.48349761539	1
0	180861	2746.48349761539	0
0	181352	2757.68796150536	1
0	181352	2757.68796150536	0
0	181835	2765.55514585771	1
0	181835	2765.55514585771	0
0	182644	2773.43245243888	1
0	182644	2773.43245243888	0
0	183270	2778.95468328561	1
0	183270	2778.95468328561	0
0	183804	2789.76994005165	1
0	183804	2789.76994005165	0
0	184077	2793.60323623864	1
0	184077	2793.60323623864	0
0	184262	2799.07191244332	1
0	184262	2799.07191244332	0
0	184421	2813.055759113	1
0	184421	2813.055759113	0
0	185599	2827.61660106832	1
0	185599	2827.61660106832	0
0	186265	2833.46360391113	1
0	186265	2833.46360391113	0
0	187330	2855.20907585632	1
0	187330	2855.20907585632	0
0	188063	2868.19387497111	1
0	188063	2868.19387497111	0
0	188363	2871.85913144961	1
0	188363	2871.85913144961	0
0	188832	2878.7040177319	1
0	188832	2878.7040177319	0
0	189205	2881.95401683936	1
0	189205	2881.95401683936	0
0	189738	2892.24017624939	1
0	189738	2892.24017624939	0
0	190353	2896.49662742054	1
0	190353	2896.49662742054	0
0	190862	2899.20277579983	1
0	190862	2899.20277579983	0
0	191358	2903.76870564034	1
0	191358	2903.76870564034	0
0	192541	2921.8717420804	1
0	192541	2921.8717420804	0
0	192862	2934.4962519105	1
0	192862	2934.4962519105	0
0	193852	2953.1746517143	1
0	193852	2953.1746517143	0
0	195075	2970.45948294403	1
0	195075	2970.45948294403	0
0	195380	2977.85496146949	1
0	195380	2977.85496146949	0
0	195659	2979.83203450938	1
0	195659	2979.83203450938	0
0	196146	2993.39482829616	1
0	196146	2993.39482829616	0
0	196633	3006.48470266788	1
0	196633	3006.48470266788	0
0	196926	3010.16014547508	1
0	196926	3010.16014547508	0
0	197457	3013.19343608459	1
0	197457	3013.19343608459	0
0	198000	3017.54419164865	1
0	198000	3017.54419164865	0
0	198267	3020.26720573263	1
0	198267	3020.26720573263	0
0	198652	3025.69400867293	1
0	198652	3025.69400867293	0
0	199049	3030.38992931827	1
0	199049	3030.38992931827	0
0	199218	3035.23672500676	1
0	199218	3035.23672500676	0
0	199567	3044.37737646282	1
0	199567	3044.37737646282	0
0	199819	3046.38525645531	1
0	199819	3046.38525645531	0
0	200107	3048.78133359359	1
0	200107	3048.78133359359	0
0	200566	3054.02739373793	1
0	200566	3054.02739373793	0
0	201267	3064.92377589359	1
0	201267	3064.92377589359	0
0	201682	3069.9494744326	1
0	201682	3069.9494744326	0
0	202070	3075.98998433885	1
0	202070	3075.98998433885	0
0	202733	3078.91118026279	1
0	202761	3079.49708052975	0
0	203090	3082.79719679187	1
0	203090	3082.79719679187	0
0	203263	3084.90908734098	1
0	203263	3084.90908734098	0
0	203435	3087.16253025014	1
0	203435	3087.16253025014	0
0	204021	3093.60800062116	1
0	204021	3093.60800062116	0
0	204845	3110.39142758578	1
0	204845	3110.39142758578	0
0	205278	3120.84719624205	1
0	205278	3120.84719624205	0
0	205660	3133.43317936654	1
0	205660	3133.43317936654	0
0	206390	3146.392105081	1
0	206390	3146.392105081	0
0	206659	3149.87686168693	1
0	206659	3149.87686168693	0
0	206806	3155.76558583216	1
0	206806	3155.76558583216	0
0	207174	3158.23792632863	1
0	207174	3158.23792632863	0
0	207800	3168.13149514087	1
0	207800	3168.13149514087	0
0	208480	3178.09262871537	1
0	208480	3178.09262871537	0
0	208795	3182.84537864087	1
0	208795	3182.84537864087	0
0	209054	3185.31528550642	1
0	209097	3185.35938318422	0
0	209479	3191.8715035905	1
0	209479	3191.8715035905	0
0	210162	3195.65618593154	1
0	210177	3196.88363774955	0
0	211156	3213.80589961931	1
0	211156	3213.80589961931	0
0	211379	3216.61324823074	1
0	211379	3216.61324823074	0
0	211817	3221.7274155658	1
0	211817	3221.7274155658	0
0	211988	3226.97233481202	1
0	211988	3226.97233481202	0
0	212638	3235.83131323905	1
0	212638	3235.83131323905	0
0	213637	3250.63071374231	1
0	213637	3250.63071374231	0
0	213891	3253.08170733846	1
0	213891	3253.08170733846	0
0	214203	3255.82810731863	1
0	214203	3255.82810731863	0
0	214743	3258.91586908495	1
0	214743	3258.91586908495	0
0	215517	3265.77320862659	1
0	215517	3265.77320862659	0
0	215674	3273.73468861148	1
0	215674	3273.73468861148	0
0	215851	3277.92204023535	1
0	215851	3277.92204023535	0
0	216306	3285.62662882462	1
0	216306	3285.62662882462	0
0	216771	3289.8809857046	1
0	216771	3289.8809857046	0
0	217122	3293.6431216804	1
0	217122	3293.6431216804	0
0	218042	3324.4988489419	1
0	218042	3324.4988489419	0
0	219733	3346.41473360487	1
0	219733	3346.41473360487	0
0	220285	3356.2070822273	1
0	220285	3356.2070822273	0
0	220643	3365.05171871014	1
0	220643	3365.05171871014	0
0	221129	3369.46358831073	1
0	221129	3369.46358831073	0
0	221465	3375.70809591893	1
0	221465	3375.70809591893	0
0	222184	3381.48347147192	1
0	222184	3381.48347147192	0
0	222755	3391.53025580675	1
0	222755	3391.53025580675	0
0	223089	3395.51035710249	1
0	223089	3395.51035710249	0
0	223349	3399.21583618115	1
0	223349	3399.21583618115	0
0	223556	3402.37076948688	1
0	223556	3402.37076948688	0
0	223788	3406.60709648337	1
0	223788	3406.60709648337	0
0	224517	3415.77071105543	1
0	224517	3415.77071105543	0
0	225180	3431.2154873265	1
0	225180	3431.2154873265	0
0	225673	3435.98392080241	1
0	225673	3435.98392080241	0
0	226512	3442.9758768907	1
0	226512	3442.9758768907	0
0	226927	3447.25227615434	1
0	226927	3447.25227615434	0
0	227317	3449.42448009445	1
0	227317	3449.42448009445	0
0	227825	3453.82272045231	1
0	227867	3454.24555757356	0
0	228402	3464.45302439819	1
0	228402	3464.45302439819	0
0	228839	3469.05629890656	1
0	228839	3469.05629890656	0
0	229030	3473.88391631741	1
0	229030	3473.88391631741	0
0	229237	3489.71583051136	1
0	229237	3489.71583051136	0
0	230394	3507.8467157936	1
0	230394	3507.8467157936	0
0	231245	3518.55799112185	1
0	231245	3518.55799112185	0
0	231797	3535.72746118056	1
0	231797	3535.72746118056	0
0	232097	3546.11360179492	1
0	232097	3546.11360179492	0
0	232556	3553.42776624018	1
0	232556	3553.42776624018	0
0	232928	3557.25999095039	1
0	232928	3557.25999095039	0
0	233354	3563.42440166901	1
0	233354	3563.42440166901	0
0	234893	3585.09179832533	1
0	234893	3585.09179832533	0
0	235346	3589.67083909065	1
0	235346	3589.67083909065	0
1	10659	61.14351447417	1.71212962242
1	17175	217.4057856979	1.7121315619
1	27756	388.61814113133	1.71213098336
1	29623	403.6713085645	1.71212974656
1	34083	438.77727380355	1.71213021703
1	36180	470.29423168441	1.71212962242
1	38595	558.34075137767	1.71213084536
1	40905	585.77039134	1.71213157786
1	43697	599.81243936478	1.7121300911
1	50207	739.73967308141	1.71213039212
1	52145	764.4721339484	1.71213262657
1	52963	770.13896216849	1.71213092397
1	61966	908.27412215662	1.71213159537
1	66342	961.77643515657	1.71212974656
1	67553	980.07788989959	1.71212969038
1	68320	991.41157038828	1.71213042023
1	71333	1023.22890347917	1.71213031221
1	74520	1098.5305218133	1.71213060852
1	80044	1184.43057752048	1.71213071274
1	86413	1287.47084922264	4.55312187939
1	88414	1318.87286986853	1.71213047799
1	103611	1548.09610018402	1.71213180101
1	108374	1626.7059082363	1.71213309727
1	109258	1642.02260864746	1.71213021703
1	118894	1771.55447102451	1.7121300911
1	128347	1932.15398964976	1.71213098336
1	130341	1955.1507592357	1.7121303967
1	144898	2198.89862516198	1.71212979332
1	151311	2275.93561601792	1.71213084536
1	153431	2310.05364942411	1.7121315619
1	156652	2370.94092445814	1.71213023695
1	157777	2395.24934138587	1.71213374626
1	163539	2469.17173708137	1.71213000192
1	172106	2618.27061007429	1.71213059052
1	173668	2633.84194843268	2.55570614685
1	179262	2720.77793948512	1.71213092397
1	188063	2868.19387497111	1.71212979332
1	195380	2977.85496146949	1.71213065079
1	207174	3158.23792632863	1.71213059327
1	215517	3265.77320862659	1.71213092397
1	222184	3381.48347147192	1.71213212642
1	223349	3399.21583618115	1.71213027154
1	225180	3431.2154873265	1.71213039212
2	10659	61.14351447417	1.71212962242
2	17175	217.4057856979	1.7121315619
2	27756	388.61814113133	1.71213098336
2	29623	403.6713085645	1.71212974656
2	34083	438.77727380355	1.71213021703
2	36180	470.29423168441	1.71212962242
2	38595	558.34075137767	1.71213084536
2	40905	585.77039134	1.71213157786
2	43697	599.81243936478	1.7121300911
2	50207	739.73967308141	1.71213039212
2	52145	764.4721339484	1.71213262657
2	52963	770.13896216849	1.71213092397
2	61966	908.27412215662	1.71213159537
2	66342	961.77643515657	1.71212974656
2	67553	980.07788989959	1.71212969038
2	68320	991.41157038828	1.71213042023
2	71333	1023.22890347917	1.71213031221
2	74520	1098.5305218133	1.71213060852
2	80044	1184.43057752048	1.71213071274
2	86413	1287.47084922264	4.55312187939
2	88414	1318.87286986853	1.71213047799
2	103611	1548.09610018402	1.71213180101
2	108374	1626.7059082363	1.71213309727
2	109258	1642.02260864746	1.71213021703
2	118894	1771.55447102451	1.7121300911
2	128347	1932.15398964976	1.71213098336
2	130341	1955.1507592357	1.7121303967
2	144898	2198.89862516198	1.71212979332
2	151311	2275.93561601792	1.71213084536
2	153431	2310.05364942411	1.7121315619
2	156652	2370.94092445814	1.71213023695
2	157777	2395.24934138587	1.71213374626
2	163539	2469.17173708137	1.71213000192
2	172106	2618.27061007429	1.71213059052
2	173668	2633.84194843268	2.55570614685
2	179262	2720.77793948512	1.71213092397
2	188063	2868.19387497111	1.71212979332
2	195380	2977.85496146949	1.71213065079
2	207174	3158.23792632863	1.71213059327
2	215517	3265.77320862659	1.71213092397
2	222184	3381.48347147192	1.71213212642
2	223349	3399.21583618115	1.71213027154
2	225180	3431.2154873265	1.71213039212
3	10795	69.78351851501	278.05221602325
3	22216	245.80682759096	578.92718547288
3	32742	425.12523751209	348.64689736975
3	48411	674.86935354775	253.34153919905
3	60107	856.79157274637	1780.1679383279
3	72182	1050.61928856758	117.33151167392
3	89350	1333.57395635448	306.75874079845
3	100527	1507.64192353976	1564.233742064
3	113187	1707.44201910307	765.75116195942
3	126193	1900.92950901108	294.70501676404
3	138191	2082.99494136535	1011.8866842307
3	152566	2300.48383424105	307.26510388458
3	167993	2548.51637506432	113.71566874363
3	180244	2737.33604366593	740.17267245255
3	192898	2939.7162992351	1292.9682840215
3	204966	3116.48902651062	5.8471665710163
3	216550	3288.98844413278	44.816134349039
3	228530	3465.66363462675	226.27539758617
4	10967	71.49565012767	1.71213161266
4	11112	80.62578372084	1.71213039212
4	11598	87.96068440409	1.71213021703
4	11902	90.93366006743	1.74988937698
4	12357	138.13369581967	1.71213256465
4	12538	181.70206456111	1.71213135772
4	13111	186.61874759311	1.71213180101
4	14218	193.40649177001	1.71213009854
4	14881	198.40666580808	1.71213004848
4	15481	202.70885527219	1.71213098336
4	15680	208.57543276748	1.71213131737
4	16480	211.28700711836	2.30553972755
4	16981	215.25134947075	1.71213092397
4	17791	220.65206471038	1.71212969038
4	18723	224.92901799427	2.34978791153
4	19418	228.12337617989	1.71212974656
4	20072	230.51313032887	1.71213000192
4	20906	236.83104431538	1.71213023695
4	21480	239.74307992387	1.7121303967
4	21911	243.23898094963	1.71213065079
4	22214	245.60909177438	1.71213118792
4	23300	259.93311677054	1.71213272103
4	23625	264.4112299908	1.71213123917
4	23815	273.44422271856	1.71213124226
4	24297	277.58085725368	1.71213042023
4	24469	288.89731795822	1.71212962242
4	24807	333.03445296842	1.71213006065
4	25331	366.70056461941	1.71213009854
4	25646	370.64182166325	1.71212979332
4	26009	375.21251749739	1.71213084536
4	27023	383.06787330026	1.71213255248
4	28508	396.22857306941	1.71213109005
4	29212	401.00648616867	1.71212969038
4	29919	406.27052037311	1.71213031221
4	30404	409.30669665815	1.71213136857
4	31643	414.01426860077	3.66910652175
4	32068	416.56353111782	1.73839700781
4	32307	420.2858461487	1.71213071274
4	32876	425.15859281527	1.71213023695
4	33254	428.35708433529	1.71213073204
4	33575	433.3825837315	1.71213104291
4	33862	437.06372574876	1.71213118792
4	34742	456.44997207377	1.7121303967
4	35026	460.77169095776	1.71213123917
4	35264	462.72610125178	1.71213000192
4	35618	465.22864136927	1.71213042023
4	36560	485.51095718183	1.71213060852
4	36873	496.57170199562	1.71213039212
4	37439	514.85601046582	1.71213256465
4	37581	544.19507372551	1.71212979332
4	38322	554.86323877192	1.71213059052
4	39177	572.72818004351	1.71213009854
4	40132	577.52356213556	1.71213004848
4	42564	595.4228770081	1.71213043327
4	44199	603.61089618593	1.71212974656
4	44552	606.53426558734	1.71212969038
4	44901	611.06048319539	1.71213071274
4	45149	613.43069762578	1.71213021703
4	45438	618.18510621007	1.71213031221
4	46697	639.40489462013	1.71213292423
4	47410	645.44067007413	1.71213027154
4	47539	647.09583942253	1.71213257736
4	47994	659.85171111854	1.71212962242
4	48194	666.46844227175	1.71213047799
4	48364	673.44146524718	1.71213040884
4	48812	684.46921881372	1.71213060852
4	49198	696.15076395356	1.71213006065
4	49705	724.53728633378	1.71212979332
4	50414	741.75131620062	1.71213073378
4	50664	746.27795687803	1.71213009854
4	53477	773.55146831007	1.71213108707
4	54500	779.39673900726	1.7121300911
4	55154	785.96440825515	1.71212974656
4	56022	791.32852583846	4.3265651712
4	56183	793.97158493007	1.71213083132
4	56699	798.77142723398	1.71213059327
4	57297	809.670230664	9.88514855234
4	57806	814.59727168026	6.62490638704
4	57808	815.16332918515	2.78741889444
4	57906	815.780209131	1.71213118792
4	58529	822.88469777162	1.7121303967
4	58888	827.23587270557	1.71213027154
4	59148	831.72844491616	1.71213004848
4	59870	841.43689277512	1.71213000192
4	60094	844.97688496323	1.71213073204
4	60742	880.84070916509	1.71213060852
4	61433	885.72454624545	1.71213212642
4	61745	903.28667047515	1.71212979332
4	62185	913.49094116949	1.71213065079
4	62558	920.14953651502	1.71213073378
4	63111	932.89838806734	1.71213047799
4	63604	941.87949089569	1.71213043327
4	63889	943.64716797916	1.71213092397
4	64157	945.65256701944	1.71213126454
4	64344	948.12318324193	1.71213180101
4	64651	951.42381759693	1.7121300911
4	65798	959.44597182192	1.71213059052
4	66648	967.1120087492	1.71213084536
4	67162	971.76289811559	2.13627846093
4	67983	986.32828320736	1.71213012257
4	69131	999.28953516097	1.71213027154
4	69762	1008.99426122166	1.71213321674
4	70305	1015.36224953792	1.71213000192
4	70889	1018.48659531865	1.71213004848
4	71888	1040.75068403548	1.7121303967
4	72507	1056.52694641818	1.71213058932
4	72961	1063.38566127857	1.71213040884
4	73470	1080.86837778821	1.71212962242
4	73653	1085.71847102074	1.71213065079
4	73907	1089.525883671	1.71213006065
4	74675	1103.45388907251	1.71212979332
4	75019	1109.7093796889	1.71213047799
4	75846	1120.49213031871	1.71213009854
4	76173	1128.94224106814	1.71213043327
4	76737	1138.363467537	1.71213225056
4	77510	1145.07789067525	1.7121300911
4	77971	1153.14982629884	1.71213097685
4	78231	1165.13460236912	1.71213073378
4	78925	1169.61586978023	1.71213023695
4	79196	1173.24887909015	1.71212969038
4	79729	1180.17959848891	1.71213214156
4	80545	1189.92692289848	1.71213042023
4	81605	1195.53447315748	1.71213031221
4	82372	1203.36603385967	1.71213167791
4	82552	1207.20354002191	1.71213159537
4	83343	1219.08695577038	1.71213104291
4	83554	1229.36955453596	1.71213323323
4	83732	1234.58830485022	1.71213059327
4	83915	1239.13866892995	1.71213073204
4	84097	1242.8211604092	1.71213109005
4	84413	1245.87626814286	1.71213012257
4	85125	1261.92406017046	1.71213291284
4	85430	1268.61843495499	1.71213039212
4	85764	1271.8476003539	1.71213065079
4	86107	1282.5220991569	1.71212979332
4	86706	1292.06988398415	1.71212962242
4	87007	1296.0301140744	1.71213135772
4	87174	1301.91545559311	1.71213009854
4	87332	1307.53623710389	1.71213006065
4	87828	1313.56284421309	1.71212974656
4	89012	1327.33049027617	1.71213060852
4	89501	1334.57395224579	1.71213059052
4	89827	1338.25868537674	1.71213043327
4	90523	1352.25437288358	1.71213073378
4	90755	1355.33036963437	1.7121300911
4	91245	1358.70650104933	1.71212969038
4	91675	1361.48770440644	1.71213027154
4	92734	1370.32730400417	1.71213083132
4	93586	1379.32949181144	1.71213121354
4	93879	1383.34938753924	1.71213369192
4	94060	1386.19245321944	1.71213167791
4	94321	1389.72825643178	1.71213159537
4	94659	1394.11980857252	1.71213131737
4	94964	1406.76309374349	1.71213000192
4	95344	1414.86768453277	1.71213109005
4	96676	1443.44945156612	1.71213021703
4	96968	1445.6448209714	1.71213058932
4	97379	1457.25415187433	1.71213012257
4	97542	1460.87961103002	1.71212979332
4	97735	1463.78587896474	1.71213004848
4	98069	1471.95727152896	1.71213039212
4	98714	1479.07806237404	1.71212962242
4	99457	1499.23252059719	1.71213006065
4	99899	1502.43330273816	1.71213060852
4	100202	1504.65816565457	1.71213374626
4	100679	1508.22800378598	1.71213059052
4	101397	1513.52874238593	1.71212974656
4	102102	1524.06229216059	1.71213073378
4	102729	1531.65948463096	1.71212969038
4	103394	1542.72153017861	1.71213071274
4	104013	1554.32460219971	1.71213031221
4	105645	1572.32578078173	1.71213159537
4	105908	1576.614409493	1.71213121354
4	106402	1585.79619831538	1.71213131737
4	106861	1594.64226887623	1.7121303967
4	107046	1596.57458257422	1.71213023695
4	107242	1598.4628015212	1.71213042023
4	107610	1608.87220828164	1.71213073204
4	109010	1635.51017984982	1.71213123917
4	109515	1644.40962355052	1.71212979332
4	110417	1660.6421859656	1.71213039212
4	110929	1668.62099347125	1.71213084536
4	111096	1677.80703390505	1.71212962242
4	111351	1681.63044987765	1.71213006065
4	111729	1684.36433005972	1.71213097685
4	112187	1688.54540879642	1.71213040884
4	112471	1695.57732606541	1.71213136857
4	112793	1701.12881763887	1.71212974656
4	113162	1704.8384464888	1.71213060852
4	113789	1710.47548903343	1.71213000192
4	114327	1713.65015023212	1.71213108707
4	114681	1722.83749428992	1.71213180101
4	115300	1728.85735314937	1.71213047799
4	115758	1733.58497133824	2.9458411148
4	116252	1737.05825097658	3.07662774648
4	116356	1738.61232208215	1.71213135772
4	116593	1741.72326109413	1.71213083132
4	117071	1751.04502822938	1.71213277554
4	117610	1758.80315593571	1.71212969038
4	118060	1762.78282974924	1.71213121354
4	118398	1764.59282696218	1.71213212536
4	118629	1768.73273513804	1.7121303967
4	119086	1773.36866990814	1.71213042023
4	119449	1787.13312765909	1.71213134041
4	119597	1790.32597011949	1.71213023695
4	120207	1814.63689319369	1.71213058932
4	120591	1821.90367074017	1.71213065079
4	120773	1824.48169978398	1.71212979332
4	121595	1842.23503178695	1.71213039212
4	121931	1845.51666516915	1.71213021703
4	122426	1851.87234995699	1.71212962242
4	122973	1860.67746898868	1.71213109005
4	123473	1867.28788367028	1.71213215157
4	123635	1869.77354230802	1.71213009854
4	124172	1872.40786913323	2.45833450452
4	125186	1884.91354724201	1.71212974656
4	125778	1891.26691265806	1.71213000192
4	126000	1893.55670899142	1.71213275066
4	126155	1898.02430367136	1.71213071274
4	126650	1903.1228645728	1.71213004848
4	126915	1905.23060798234	1.71213012257
4	127252	1908.28593168433	1.71213136857
4	127704	1912.90790433795	2.49163730855
4	128747	1936.66404546432	1.71212969038
4	129096	1939.12443217481	1.71213027154
4	129842	1950.97125606086	1.71213083132
4	130283	1954.71885011407	3.16917120006
4	131034	1961.96254874156	1.71213121354
4	131363	1968.85144299513	1.71213042023
4	131538	1977.84863632128	1.7121300911
4	131713	1981.45833567012	1.71213023695
4	132087	1990.10674198691	1.71213058932
4	132777	2008.00657267523	1.71213342797
4	133239	2019.27089330338	1.71212979332
4	133689	2024.39472289021	1.71213073204
4	133909	2027.29400419253	1.71212962242
4	134575	2039.73257464873	1.71213021703
4	135413	2051.11062603307	1.71213009854
4	135808	2058.57230546044	1.71213006065
4	136610	2062.08612747301	1.71212974656
4	137082	2068.63719127107	1.71213060852
4	137238	2070.64303856712	1.71213039212
4	137908	2080.08604039786	1.71213012257
4	138187	2082.72474374724	1.71213108707
4	138689	2086.35589481872	3.25721416018
4	138916	2089.66013537595	1.71213000192
4	139133	2092.49955882112	1.71213073378
4	139447	2096.02311284911	1.71213047799
4	139633	2102.38035818085	1.71213071274
4	139971	2105.70346042039	1.71213136857
4	140654	2114.03857637222	1.7121315619
4	141046	2118.44576174197	1.71212969038
4	141476	2126.32968644342	1.71213083132
4	141710	2128.54761339747	1.71213386172
4	141872	2135.25517133539	1.71213027154
4	142607	2142.79789360355	1.71213042023
4	143427	2162.60518175852	1.71213031221
4	143834	2167.34345763462	1.7121300911
4	144172	2175.35798927477	1.71213023695
4	144353	2180.56150236757	1.7121303967
4	144535	2189.06042399973	1.71213065079
4	144748	2194.44980770572	1.71213092397
4	145390	2204.37164298545	1.71212962242
4	145929	2212.95285630656	1.71213134041
4	146098	2214.74050600078	1.71213124226
4	146612	2224.21182801706	1.71213109005
4	147797	2238.21623743145	1.71213009854
4	148117	2240.6517867871	1.71212974656
4	148502	2242.57487001365	1.71213059327
4	148731	2246.47051079297	1.71213006065
4	149621	2254.7675061951	1.71213359107
4	149768	2256.53175846273	1.71213039212
4	149968	2261.84016984792	1.71213059052
4	150297	2264.08364847625	1.71213004848
4	150952	2270.38188741373	1.71213047799
4	151717	2290.00475490802	1.71213071274
4	152129	2297.07568697263	1.71213000192
4	152943	2303.55831377854	1.71213021703
4	153170	2306.57447333818	1.71213131737
4	154059	2325.10537429289	1.71212969038
4	154513	2330.76626477244	1.71213118792
4	154827	2334.14302929486	1.71213042023
4	155663	2344.05424798623	1.71213058932
4	155980	2356.74872339161	1.7121300911
4	156347	2366.38087595442	1.71213092397
4	158160	2405.72016989144	1.71213065079
4	158456	2409.59565371484	1.71213167791
4	158693	2411.47401560305	1.71213009854
4	158978	2415.19017851024	1.71213097685
4	159636	2429.14880051685	1.71213121354
4	160325	2433.63123660417	1.71212974656
4	160988	2439.04560534504	1.71213040884
4	161489	2442.8163299416	1.71212962242
4	161841	2445.66334889634	1.71213043327
4	162041	2452.81922155063	1.71213004848
4	162390	2456.02630589575	1.71213060852
4	162563	2458.36862595521	1.71213012257
4	162884	2464.44268768826	1.71213006065
4	164877	2492.22199956763	1.71213098336
4	165193	2503.05981472972	1.71212969038
4	166386	2519.67744666053	1.71213387257
4	166556	2529.64020474889	1.71213031221
4	166987	2536.86234626087	1.71213126454
4	167523	2541.79353227117	1.7121303967
4	167877	2547.1029923597	1.7121300911
4	168622	2552.51819901882	1.71213084536
4	168912	2555.87023847112	2.98465818891
4	169213	2564.78748599527	1.71213023695
4	169591	2569.19817645539	1.71213260126
4	170564	2594.27213447207	1.71213097685
4	171574	2604.21955334156	1.71213065079
4	172650	2620.70701468972	1.71212962242
4	172840	2623.62223390024	1.71212974656
4	173031	2628.57834758613	1.71213040884
4	173307	2630.61043303369	1.71213012257
4	174119	2640.04884555145	1.71213256465
4	174649	2643.6184165927	1.71213000192
4	174993	2645.85279290053	1.71213039212
4	175535	2657.66454950368	1.71213108707
4	176253	2671.49487614449	1.71213004848
4	176460	2674.38021336205	2.81901229567
4	176680	2677.06167007961	1.71212979332
4	177021	2681.57560149362	1.71213021703
4	178072	2697.2477712554	1.71212969038
4	178520	2703.96167751417	1.71213031221
4	180861	2746.48349761539	1.7121300911
4	181352	2757.68796150536	1.71213023695
4	181835	2765.55514585771	1.71213309332
4	182644	2773.43245243888	1.71213134041
4	183270	2778.95468328561	1.71213065079
4	183804	2789.76994005165	1.71213124226
4	184077	2793.60323623864	1.71213159537
4	184262	2799.07191244332	1.71213109005
4	184421	2813.055759113	1.71213012257
4	185599	2827.61660106832	1.71212962242
4	186265	2833.46360391113	1.71213006065
4	187330	2855.20907585632	1.71213000192
4	188363	2871.85913144961	1.71213098336
4	188832	2878.7040177319	1.71213021703
4	189205	2881.95401683936	1.71213073378
4	189738	2892.24017624939	1.71213354691
4	190353	2896.49662742054	1.71213040884
4	190862	2899.20277579983	1.71212969038
4	191358	2903.76870564034	1.71212974656
4	192541	2921.8717420804	1.71213176835
4	192862	2934.4962519105	1.71213004848
4	193852	2953.1746517143	1.71213097685
4	195075	2970.45948294403	1.71213335924
4	195659	2979.83203450938	1.71213124226
4	196146	2993.39482829616	1.7121300911
4	196633	3006.48470266788	1.71213006065
4	196926	3010.16014547508	1.71213060852
4	197457	3013.19343608459	1.71213212642
4	198000	3017.54419164865	1.71213023695
4	198267	3020.26720573263	1.71213043327
4	198652	3025.69400867293	1.71213135772
4	199049	3030.38992931827	1.71213009854
4	199218	3035.23672500676	1.71213039212
4	199567	3044.37737646282	1.71213027154
4	199819	3046.38525645531	1.71213047799
4	200107	3048.78133359359	1.71213073204
4	200566	3054.02739373793	1.71213021703
4	201267	3064.92377589359	1.71213131737
4	201682	3069.9494744326	1.71213098336
4	202070	3075.98998433885	1.71213040884
4	202761	3079.49708052975	2.29803068719
4	203090	3082.79719679187	1.71213084536
4	203263	3084.90908734098	1.71212969038
4	203435	3087.16253025014	1.71212974656
4	204021	3093.60800062116	1.71213071274
4	204845	3110.39142758578	1.71213004848
4	205278	3120.84719624205	1.71213031221
4	205660	3133.43317936654	1.71213309332
4	206390	3146.392105081	1.71213097685
4	206659	3149.87686168693	1.71213109005
4	206806	3155.76558583216	1.71213065079
4	207800	3168.13149514087	1.71213000192
4	208480	3178.09262871537	1.71213123917
4	208795	3182.84537864087	1.71213006065
4	209097	3185.35938318422	1.75622730022
4	209479	3191.8715035905	1.7121303967
4	210177	3196.88363774955	2.93958303155
4	211156	3213.80589961931	1.71213118792
4	211379	3216.61324823074	1.71213043327
4	211817	3221.7274155658	1.71213009854
4	211988	3226.97233481202	1.71213039212
4	212638	3235.83131323905	1.71213023695
4	213637	3250.63071374231	1.71213042023
4	213891	3253.08170733846	1.71213083132
4	214203	3255.82810731863	1.71213291284
4	214743	3258.91586908495	1.71212969038
4	215674	3273.73468861148	1.71212979332
4	215851	3277.92204023535	1.71212974656
4	216306	3285.62662882462	1.71213126454
4	216771	3289.8809857046	1.71213071274
4	217122	3293.6431216804	1.71213004848
4	218042	3324.4988489419	1.71213058932
4	219733	3346.41473360487	1.71213059327
4	220285	3356.2070822273	1.71213000192
4	220643	3365.05171871014	1.71213123917
4	221129	3369.46358831073	1.7121300911
4	221465	3375.70809591893	1.71213006065
4	222755	3391.53025580675	1.71213124226
4	223089	3395.51035710249	1.71213009854
4	223556	3402.37076948688	1.71213135772
4	223788	3406.60709648337	1.71213104291
4	224517	3415.77071105543	1.71213047799
4	225673	3435.98392080241	1.71212969038
4	226512	3442.9758768907	1.71213042023
4	226927	3447.25227615434	1.71213012257
4	227317	3449.42448009445	1.71213040884
4	227867	3454.24555757356	2.13496691457
4	228402	3464.45302439819	1.71212974656
4	228839	3469.05629890656	1.71213071274
4	229030	3473.88391631741	1.71213004848
4	229237	3489.71583051136	1.71213126454
4	230394	3507.8467157936	1.71213309452
4	231245	3518.55799112185	1.71213065079
4	231797	3535.72746118056	1.71213260126
4	232097	3546.11360179492	1.71213000192
4	232556	3553.42776624018	1.71213121354
4	232928	3557.25999095039	1.7121303967
4	233354	3563.42440166901	1.71212962242
4	234893	3585.09179832533	1.7121300911
4	235346	3589.67083909065	1.71213097685
5	10967	71.49565012767	1.71213161266
5	11112	80.62578372084	1.71213039212
5	11598	87.96068440409	1.71213021703
5	11902	90.93366006743	1.74988937698
5	12357	138.13369581967	1.71213256465
5	12538	181.70206456111	1.71213135772
5	13111	186.61874759311	1.71213180101
5	14218	193.40649177001	1.71213009854
5	14881	198.40666580808	1.71213004848
5	15481	202.70885527219	1.71213098336
5	15680	208.57543276748	1.71213131737
5	16480	211.28700711836	2.30553972755
5	16981	215.25134947075	1.71213092397
5	17791	220.65206471038	1.71212969038
5	18723	224.92901799427	2.34978791153
5	19418	228.12337617989	1.71212974656
5	20072	230.51313032887	1.71213000192
5	20906	236.83104431538	1.71213023695
5	21480	239.74307992387	1.7121303967
5	21911	243.23898094963	1.71213065079
5	22214	245.60909177438	1.71213118792
5	23300	259.93311677054	1.71213272103
5	23625	264.4112299908	1.71213123917
5	23815	273.44422271856	1.71213124226
5	24297	277.58085725368	1.71213042023
5	24469	288.89731795822	1.71212962242
5	24807	333.03445296842	1.71213006065
5	25331	366.70056461941	1.71213009854
5	25646	370.64182166325	1.71212979332
5	26009	375.21251749739	1.71213084536
5	27023	383.06787330026	1.71213255248
5	28508	396.22857306941	1.71213109005
5	29212	401.00648616867	1.71212969038
5	29919	406.27052037311	1.71213031221
5	30404	409.30669665815	1.71213136857
5	31643	414.01426860077	3.66910652175
5	32068	416.56353111782	1.73839700781
5	32307	420.2858461487	1.71213071274
5	32876	425.15859281527	1.71213023695
5	33254	428.35708433529	1.71213073204
5	33575	433.3825837315	1.71213104291
5	33862	437.06372574876	1.71213118792
5	34742	456.44997207377	1.7121303967
5	35026	460.77169095776	1.71213123917
5	35264	462.72610125178	1.71213000192
5	35618	465.22864136927	1.71213042023
5	36560	485.51095718183	1.71213060852
5	36873	496.57170199562	1.71213039212
5	37439	514.85601046582	1.71213256465
5	37581	544.19507372551	1.71212979332
5	38322	554.86323877192	1.71213059052
5	39177	572.72818004351	1.71213009854
5	40132	577.52356213556	1.71213004848
5	42564	595.4228770081	1.71213043327
5	44199	603.61089618593	1.71212974656
5	44552	606.53426558734	1.71212969038
5	44901	611.06048319539	1.71213071274
5	45149	613.43069762578	1.71213021703
5	45438	618.18510621007	1.71213031221
5	46697	639.40489462013	1.71213292423
5	47410	645.44067007413	1.71213027154
5	47539	647.09583942253	1.71213257736
5	47994	659.85171111854	1.71212962242
5	48194	666.46844227175	1.71213047799
5	48364	673.44146524718	1.71213040884
5	48812	684.46921881372	1.71213060852
5	49198	696.15076395356	1.71213006065
5	49705	724.53728633378	1.71212979332
5	50414	741.75131620062	1.71213073378
5	50664	746.27795687803	1.71213009854
5	53477	773.55146831007	1.71213108707
5	54500	779.39673900726	1.7121300911
5	55154	785.96440825515	1.71212974656
5	56022	791.32852583846	4.3265651712
5	56183	793.97158493007	1.71213083132
5	56699	798.77142723398	1.71213059327
5	57297	809.670230664	9.88514855234
5	57806	814.59727168026	6.62490638704
5	57808	815.16332918515	2.78741889444
5	57906	815.780209131	1.71213118792
5	58529	822.88469777162	1.7121303967
5	58888	827.23587270557	1.71213027154
5	59148	831.72844491616	1.71213004848
5	59870	841.43689277512	1.71213000192
5	60094	844.97688496323	1.71213073204
5	60742	880.84070916509	1.71213060852
5	61433	885.72454624545	1.71213212642
5	61745	903.28667047515	1.71212979332
5	62185	913.49094116949	1.71213065079
5	62558	920.14953651502	1.71213073378
5	63111	932.89838806734	1.71213047799
5	63604	941.87949089569	1.71213043327
5	63889	943.64716797916	1.71213092397
5	64157	945.65256701944	1.71213126454
5	64344	948.12318324193	1.71213180101
5	64651	951.42381759693	1.7121300911
5	65798	959.44597182192	1.71213059052
5	66648	967.1120087492	1.71213084536
5	67162	971.76289811559	2.13627846093
5	67983	986.32828320736	1.71213012257
5	69131	999.28953516097	1.71213027154
5	69762	1008.99426122166	1.71213321674
5	70305	1015.36224953792	1.71213000192
5	70889	1018.48659531865	1.71213004848
5	71888	1040.75068403548	1.7121303967
5	72507	1056.52694641818	1.71213058932
5	72961	1063.38566127857	1.71213040884
5	73470	1080.86837778821	1.71212962242
5	73653	1085.71847102074	1.71213065079
5	73907	1089.525883671	1.71213006065
5	74675	1103.45388907251	1.71212979332
5	75019	1109.7093796889	1.71213047799
5	75846	1120.49213031871	1.71213009854
5	76173	1128.94224106814	1.71213043327
5	76737	1138.363467537	1.71213225056
5	77510	1145.07789067525	1.7121300911
5	77971	1153.14982629884	1.71213097685
5	78231	1165.13460236912	1.71213073378
5	78925	1169.61586978023	1.71213023695
5	79196	1173.24887909015	1.71212969038
5	79729	1180.17959848891	1.71213214156
5	80545	1189.92692289848	1.71213042023
5	81605	1195.53447315748	1.71213031221
5	82372	1203.36603385967	1.71213167791
5	82552	1207.20354002191	1.71213159537
5	83343	1219.08695577038	1.71213104291
5	83554	1229.36955453596	1.71213323323
5	83732	1234.58830485022	1.71213059327
5	83915	1239.13866892995	1.71213073204
5	84097	1242.8211604092	1.71213109005
5	84413	1245.87626814286	1.71213012257
5	85125	1261.92406017046	1.71213291284
5	85430	1268.61843495499	1.71213039212
5	85764	1271.8476003539	1.71213065079
5	86107	1282.5220991569	1.71212979332
5	86706	1292.06988398415	1.71212962242
5	87007	1296.0301140744	1.71213135772
5	87174	1301.91545559311	1.71213009854
5	87332	1307.53623710389	1.71213006065
5	87828	1313.56284421309	1.71212974656
5	89012	1327.33049027617	1.71213060852
5	89501	1334.57395224579	1.71213059052
5	89827	1338.25868537674	1.71213043327
5	90523	1352.25437288358	1.71213073378
5	90755	1355.33036963437	1.7121300911
5	91245	1358.70650104933	1.71212969038
5	91675	1361.48770440644	1.71213027154
5	92734	1370.32730400417	1.71213083132
5	93586	1379.32949181144	1.71213121354
5	93879	1383.34938753924	1.71213369192
5	94060	1386.19245321944	1.71213167791
5	94321	1389.72825643178	1.71213159537
5	94659	1394.11980857252	1.71213131737
5	94964	1406.76309374349	1.71213000192
5	95344	1414.86768453277	1.71213109005
5	96676	1443.44945156612	1.71213021703
5	96968	1445.6448209714	1.71213058932
5	97379	1457.25415187433	1.71213012257
5	97542	1460.87961103002	1.71212979332
5	97735	1463.78587896474	1.71213004848
5	98069	1471.95727152896	1.71213039212
5	98714	1479.07806237404	1.71212962242
5	99457	1499.23252059719	1.71213006065
5	99899	1502.43330273816	1.71213060852
5	100202	1504.65816565457	1.71213374626
5	100679	1508.22800378598	1.71213059052
5	101397	1513.52874238593	1.71212974656
5	102102	1524.06229216059	1.71213073378
5	102729	1531.65948463096	1.71212969038
5	103394	1542.72153017861	1.71213071274
5	104013	1554.32460219971	1.71213031221
5	105645	1572.32578078173	1.71213159537
5	105908	1576.614409493	1.71213121354
5	106402	1585.79619831538	1.71213131737
5	106861	1594.64226887623	1.7121303967
5	107046	1596.57458257422	1.71213023695
5	107242	1598.4628015212	1.71213042023
5	107610	1608.87220828164	1.71213073204
5	109010	1635.51017984982	1.71213123917
5	109515	1644.40962355052	1.71212979332
5	110417	1660.6421859656	1.71213039212
5	110929	1668.62099347125	1.71213084536
5	111096	1677.80703390505	1.71212962242
5	111351	1681.63044987765	1.71213006065
5	111729	1684.36433005972	1.71213097685
5	112187	1688.54540879642	1.71213040884
5	112471	1695.57732606541	1.71213136857
5	112793	1701.12881763887	1.71212974656
5	113162	1704.8384464888	1.71213060852
5	113789	1710.47548903343	1.71213000192
5	114327	1713.65015023212	1.71213108707
5	114681	1722.83749428992	1.71213180101
5	115300	1728.85735314937	1.71213047799
5	115758	1733.58497133824	2.9458411148
5	116252	1737.05825097658	3.07662774648
5	116356	1738.61232208215	1.71213135772
5	116593	1741.72326109413	1.71213083132
5	117071	1751.04502822938	1.71213277554
5	117610	1758.80315593571	1.71212969038
5	118060	1762.78282974924	1.71213121354
5	118398	1764.59282696218	1.71213212536
5	118629	1768.73273513804	1.7121303967
5	119086	1773.36866990814	1.71213042023
5	119449	1787.13312765909	1.71213134041
5	119597	1790.32597011949	1.71213023695
5	120207	1814.63689319369	1.71213058932
5	120591	1821.90367074017	1.71213065079
5	120773	1824.48169978398	1.71212979332
5	121595	1842.23503178695	1.71213039212
5	121931	1845.51666516915	1.71213021703
5	122426	1851.87234995699	1.71212962242
5	122973	1860.67746898868	1.71213109005
5	123473	1867.28788367028	1.71213215157
5	123635	1869.77354230802	1.71213009854
5	124172	1872.40786913323	2.45833450452
5	125186	1884.91354724201	1.71212974656
5	125778	1891.26691265806	1.71213000192
5	126000	1893.55670899142	1.71213275066
5	126155	1898.02430367136	1.71213071274
5	126650	1903.1228645728	1.71213004848
5	126915	1905.23060798234	1.71213012257
5	127252	1908.28593168433	1.71213136857
5	127704	1912.90790433795	2.49163730855
5	128747	1936.66404546432	1.71212969038
5	129096	1939.12443217481	1.71213027154
5	129842	1950.97125606086	1.71213083132
5	130283	1954.71885011407	3.16917120006
5	131034	1961.96254874156	1.71213121354
5	131363	1968.85144299513	1.71213042023
5	131538	1977.84863632128	1.7121300911
5	131713	1981.45833567012	1.71213023695
5	132087	1990.10674198691	1.71213058932
5	132777	2008.00657267523	1.71213342797
5	133239	2019.27089330338	1.71212979332
5	133689	2024.39472289021	1.71213073204
5	133909	2027.29400419253	1.71212962242
5	134575	2039.73257464873	1.71213021703
5	135413	2051.11062603307	1.71213009854
5	135808	2058.57230546044	1.71213006065
5	136610	2062.08612747301	1.71212974656
5	137082	2068.63719127107	1.71213060852
5	137238	2070.64303856712	1.71213039212
5	137908	2080.08604039786	1.71213012257
5	138187	2082.72474374724	1.71213108707
5	138689	2086.35589481872	3.25721416018
5	138916	2089.66013537595	1.71213000192
5	139133	2092.49955882112	1.71213073378
5	139447	2096.02311284911	1.71213047799
5	139633	2102.38035818085	1.71213071274
5	139971	2105.70346042039	1.71213136857
5	140654	2114.03857637222	1.7121315619
5	141046	2118.44576174197	1.71212969038
[...]
53	41622	590.08600648611	13.179668760216
53	57476	812.85328809567	320.2353178909
53	68346	991.56001443394	83.096735872287
53	79242	1175.94833262998	1656.608455316
53	93336	1377.6173605979	1593.9716972631
53	105731	1574.90227827946	401.22763637703
53	117729	1761.0706985357	124.23672103361
53	130708	1960.25041752802	58.007560321225
53	143445	2162.73899243664	126.10364413844
53	159383	2427.43666930331	148.82524818995
53	174122	2640.7183576561	156.28663499732
53	184452	2818.81820308513	642.96818198797
53	197624	3014.95818403259	147.98451510633
53	209910	3193.944054718	1124.1679205095
53	221511	3376.24290001374	936.60811641711
53	232383	3551.71563502664	593.00978775242
54	18812	226.2659543002	161.24112050849
54	30101	407.68534546556	1222.3510991409
54	42845	596.71322485249	994.57001755886
54	54551	781.63482255158	1710.4083010821
54	65644	958.82608930662	165.71782576939
54	77723	1151.68821951152	727.6830901462
54	90193	1344.81276448113	1222.7394538966
54	107621	1616.26167971064	738.46583569372
54	119640	1791.32916724396	266.06864358181
54	135523	2057.08667335411	1805.0936509717
54	146703	2230.92914503355	735.39618591359
54	162677	2463.10504056283	308.72295515417
54	175131	2654.37838048498	2559.9418096194
54	186564	2839.10167297466	8.1656639326306
54	198127	3018.84409712777	661.89315395557
54	209270	3190.63048853677	322.54588329
54	220983	3367.95848294198	818.4829703889
54	231965	3544.48503889262	356.30258933307
55	18892	226.41124643333	223.41222442442
55	29405	401.95917881794	45.758850129325
55	43979	601.89876643937	628.09919050431
55	54789	784.25227850859	108.8033613833
55	65899	960.06430541001	47.708493379008
55	76536	1136.65133528644	464.90160342508
55	87540	1311.85071446653	603.91288869371
55	101029	1511.81661263937	621.72106366838
55	112506	1699.41668789231	129.86649268154
55	124745	1883.20141749545	398.21826947198
55	136241	2060.37399772645	94.014527937459
55	147896	2238.93965704054	1226.2067783594
55	159959	2431.91910685761	542.20865063985
55	172700	2621.91010415368	163.63539719301
55	191143	2902.05657589378	437.5815856133
55	203299	3085.45040050358	786.77055416715
55	215719	3276.20991048879	835.76391376094
55	228118	3462.74089465163	746.96964083995
56	19131	227.58433943484	216.24568404413
56	31564	413.94978983935	637.18414714331
56	43393	598.69674829382	336.50637773312
56	53955	775.85507187021	178.24184292021
56	64431	949.82542455124	9.0415663586696
56	76825	1141.47259546099	106.96371744773
56	90871	1356.73578178302	2125.5516017084
56	102859	1535.71338273028	48.427804327528
56	114684	1723.60354420052	481.0609068024
56	129450	1943.69573061817	504.97638641345
56	141173	2122.87652090166	73.968938745493
56	153259	2309.50372186694	868.71056978239
56	167656	2545.48371593246	652.72202259318
56	182477	2772.91363202122	482.58836909605
56	195248	2976.8664685334	522.31480826926
56	207273	3162.62048650149	3696.2800682683
56	219176	3344.24006857854	351.67669987224
56	231287	3518.55899761222	1485.9311874295
57	19289	228.06729892951	666.55139876612
57	36400	483.79882657331	408.29502426825
57	48574	682.7570882052	372.65826157734
57	60580	879.12857855657	239.71589252078
57	74358	1096.81839120478	41.868132129443
57	88773	1325.61835966765	155.49240352276
57	99583	1500.72117212964	197.00343761946
57	112995	1703.12631588028	278.13380631544
57	124510	1881.74616961408	388.04475191359
57	136919	2066.92506066255	986.44576834713
57	148864	2249.03291264901	351.94190069481
57	162151	2454.31417528723	236.61716000735
57	173492	2632.76143933019	289.76011360869
57	184765	2823.60812391575	810.92408809987
57	196683	3008.44801486656	251.63038936848
57	213066	3237.48782941139	144.66545979827
57	225220	3432.27779006292	153.19412337195
58	19463	228.23207915332	134.50230874144
58	31065	412.04680210241	293.70041316975
58	41544	590.00261569088	219.22352786343
58	53138	771.839337223	518.27605844457
58	65488	958.79669906051	1210.6517931156
58	77059	1142.36537791733	827.37700914654
58	88029	1315.83941950578	99.408086197547
58	101782	1521.17119999215	309.18978904217
58	113988	1711.93801914505	344.7403355278
58	124981	1884.57820593858	1420.069076787
58	137933	2081.01261266017	473.51198979108
58	149412	2253.05537260403	622.69335231749
58	160463	2437.06081344198	28.817809219335
58	175209	2655.95241841661	111.36246156762
58	189972	2893.2737935648	172.87337429399
58	201783	3074.17794121545	456.56904868401
58	214208	3256.32091856257	718.15320990915
58	226542	3445.06220615638	199.73002367248
59	19544	228.72454921249	325.5209823961
59	29760	405.66850300068	100.40654828824
59	43547	598.87430561381	329.18893046447
59	56028	792.25945409875	1127.7625162884
59	68671	996.70724943722	351.6409197859
59	81291	1195.12942801554	1338.4011979873
59	92357	1368.61517317285	197.94178211615
59	104671	1561.14863165928	1988.177285158
59	116366	1740.01113026281	698.5237122687
59	129694	1949.25912522954	163.97478452876
59	141329	2124.6175556121	1026.2227366192
59	151919	2296.29498924205	190.26002941328
59	163756	2478.15760653027	87.941795385627
59	177152	2690.67492187539	525.70802680247
59	191487	2905.14192734674	1205.9415499257
59	202351	3077.80812091169	321.89938018789
59	213664	3251.36957650714	679.17121271695
59	225300	3433.63826426078	1078.9670219606
60	19622	228.80100032695	1605.8905232949
60	35049	461.01397124986	688.67759880435
60	46939	642.04756034305	236.68972531722
60	59735	839.7247627732	68.75352473092
60	69938	1013.650119536	104.54125417462
60	81213	1194.95297029562	1248.9962182367
60	94754	1405.05096374157	543.19111928998
60	113344	1708.76335903151	278.22176072276
60	125564	1889.55478265614	155.12972162658
60	138778	2087.94800537403	836.61735165912
60	151839	2295.36355697071	186.85371727821
60	163245	2467.45960707945	13.336942450212
60	174283	2641.90628659078	645.82240055077
60	187119	2853.4969458544	119.8755835121
60	207508	3166.41936513895	68.389813268907
60	220074	3354.49495222538	885.39375703877
60	231887	3544.401471793	394.77806942186
61	20139	233.39986041064	1545.0257374307
61	30748	410.47737397453	859.357086259
61	42689	596.50619249731	23.241090372974
61	54868	784.55352104455	116.56945593787
61	66670	967.48776095624	401.79213061362
61	80571	1190.09368847131	1236.4363538247
61	92763	1370.94900778438	184.47262986162
61	106078	1583.07095340154	1100.1004593337
61	117811	1761.83823960049	556.95003415324
61	129212	1941.80166634596	356.40424222854
61	142882	2158.3769486232	349.94450324109
61	154930	2334.59432787604	715.5684328662
61	167155	2540.06463428079	1672.955166521
61	178629	2712.05331762438	14.008494337546
61	190397	2896.7749495732	800.51369652314
61	205982	3144.32304856546	640.83268777994
61	217563	3319.42910717326	276.8406460817
61	229637	3494.3913567068	36.741014312285
62	20221	233.78070655308	140.70097770234
62	35132	462.48300525431	432.77793021258
62	46418	637.7749399756	907.71475201576
62	58574	823.80682395265	368.29510793242
62	71931	1040.76229377948	644.31202582323
62	86335	1287.12717441995	177.71673054418
62	98189	1473.99000147634	379.38404703489
62	109641	1647.24806954355	1276.0764123815
62	120814	1824.48633248123	1802.2752092112
62	137279	2071.73257230766	2014.2709942856
62	151577	2289.80509242606	415.9671625157
62	163084	2466.39343693205	594.53112397562
62	175779	2660.52658632543	153.38331328921
62	187040	2852.53603319506	588.14436732683
62	198654	3026.06976872403	202.096940806
62	210422	3205.19201607793	455.73430287931
62	223645	3406.50657452634	90.072196856856
63	20382	235.11891407843	345.22516266714
63	32584	423.44646257832	2476.8448391175
63	44411	604.91576930833	42.343630314954
63	54633	782.94209023355	917.3578569562
63	66905	969.62661965466	671.22035082635
63	78630	1167.90373954328	523.69040480382
63	91524	1360.81450734228	471.38354595191
63	106907	1594.86245233727	202.58808345092
63	119461	1788.61383988254	824.78208023279
63	131576	1979.74620543317	297.82355764108
63	144036	2173.64585903782	803.1875660799
63	156439	2369.22879422119	48.790344307936
63	169002	2563.07535575832	1230.8332134438
63	181217	2755.97583126841	818.15094811884
63	197707	3015.8320614117	577.66127345059
63	212192	3234.1191830021	622.10152720828
63	225945	3436.89394190695	716.51891157044
64	20460	235.12482758493	706.90134964476
64	36581	492.6957120958	2159.3893151472
64	48053	664.75631179376	181.09742898881
64	62965	931.18625758935	824.24382198669
64	74801	1107.99724921091	1941.5724890779
64	88112	1317.16073939054	16.754796557437
64	103613	1548.5306718228	495.92107547875
64	115078	1727.14522267138	52.544519916631
64	127365	1910.24354974773	76.699633057745
64	139226	2094.31098237112	264.79104777535
64	150727	2268.66975693574	275.44299206477
64	161191	2440.83631132246	481.97984934751
64	175943	2663.58421145313	321.37790443599
64	187462	2863.59086202935	1016.0186417012
64	199593	3044.67312597732	4276.6790677284
64	211504	3219.66530507537	862.73076617139
64	224299	3414.05858057744	856.21229251338
65	20538	235.18519704264	75.323979154376
65	30179	408.21859673819	68.989390442647
65	40653	584.05825976214	16.306275389688
65	51010	759.01968209144	1108.5933755318
65	63723	942.93054366264	182.1699108153
65	75296	1116.45694143737	913.91058432606
65	87377	1307.59141172195	239.79596092739
65	102111	1524.49548321574	503.97740232275
65	112586	1700.25560125244	6.3336163014168
65	124588	1881.85100598372	125.10913521118
65	135601	2057.64594074325	31.523391207509
65	149019	2250.24007500008	569.38338758098
65	163678	2477.39325701952	755.97895922365
65	175617	2658.72894143448	44.526526630168
65	193057	2948.02682961211	181.26934378197
65	205306	3131.02148501919	130.82787234083
65	218134	3325.95450391694	730.74807632055
65	230194	3507.84574488235	710.27038638982
66	20692	235.86493806369	552.02275052669
66	33432	432.87467907216	95.14046766079
66	48652	683.03054571113	1208.24683393
66	60425	875.44202638673	70.048406967293
66	73954	1089.88657165404	612.47440419885
66	85132	1263.22090459762	35.887389279847
66	99010	1487.81487646141	1056.0025499026
66	110464	1664.37565512057	632.95548186925
66	122643	1857.47898239809	64.902647584473
66	135105	2047.50881615506	512.76151924067
66	147253	2236.14595856553	685.88857858116
66	163166	2467.15074208657	17.139293312268
66	174438	2642.52785631613	57.333166952764
66	185821	2831.41373834523	959.52010649824
66	200123	3051.9254010884	1513.8052328105
66	212270	3234.21590871205	131.96905867136
66	224064	3412.22161724842	777.17233736594
67	20770	235.9265560813	970.3021475667
67	32506	423.38703512237	546.12237209457
67	47103	643.72853980259	111.02622142073
67	58733	825.52374243403	292.94672826513
67	68903	997.57740488943	140.3355641223
67	78714	1169.22250419812	412.46306255132
67	91287	1359.7755741349	355.27735858324
67	104186	1555.12027409843	285.14464393853
67	116871	1749.33289545384	801.92447491971
67	128861	1937.41230190327	146.61135243132
67	141724	2133.54304106385	674.80019435313
67	153919	2324.00227616988	1215.0275888839
67	165311	2505.32395061889	555.63396818028
67	176885	2680.60611403081	225.26770694641
67	187384	2862.66309126155	1925.1456010669
67	199417	3042.66524619128	1419.0082609858
67	211242	3215.4232165023	535.2587772732
67	223195	3397.50370590961	10.620311284278
67	234038	3571.28390286309	368.68409791312
68	21256	238.03094952717	200.0740408444
68	34456	454.73784167707	152.67900761782
68	45863	627.12697323979	94.123212770523
68	58316	821.17256737492	139.46540836431
68	71677	1039.03855363878	464.64415965461
68	82639	1210.46320979435	816.96628313886
68	95172	1413.91621274116	301.63286868563
68	106728	1592.93013847953	96.822229770059
68	118412	1767.02060474134	2296.1300247157
68	130201	1953.438628839	39.139522337778
68	144220	2178.84937197087	657.43132034745
68	156361	2368.43259311229	244.14033631365
68	167233	2540.08140187447	509.76931597059
68	184997	2824.64072938188	468.58006218311
68	196350	3004.03862890554	2867.7063503906
68	209192	3190.1593731938	247.99997740933
68	221670	3379.50852086026	793.57142889162
68	232641	3555.54786055369	1314.166277086
69	21344	239.13268333574	416.42171251653
69	31888	415.96063011629	1431.9770899645
69	46184	633.90770068511	1146.1300920076
69	57908	815.9785071139	177.24872601942
69	72600	1061.17187366473	356.86909955441
69	84182	1244.38306366422	1318.8241699927
69	95990	1425.08950477118	284.31764637516
69	107776	1619.2744324291	372.50299894349
69	121141	1831.61841138946	727.51844548263
69	136664	2062.9649025884	62.265375546262
69	150151	2263.74151878484	2127.3496291086
69	160380	2436.1434486424	898.43641479745
69	171954	2617.52297768808	1303.8465848146
69	185075	2825.01492848374	1012.5127552413
69	200612	3055.16082001806	2156.4732027005
69	213322	3241.22178032647	509.22223801139
69	224644	3421.65080953509	1138.0299088754
70	21615	241.32371108921	847.23471250144
70	31725	414.82513411001	1221.1055949363
70	41778	590.49759968796	7.1850290817802
70	52404	767.81727084657	1602.7156621795
70	66750	968.76130386172	1528.7772214208
70	79400	1178.46746634735	432.48529711051
70	96800	1445.25360413973	753.94032686418
70	107935	1622.89078160884	307.38386186482
70	122475	1853.44495784843	285.07588672108
70	133969	2032.08417324408	586.16352941193
70	148785	2247.7682220982	369.6396640027
70	159463	2427.86010758174	79.166531274099
70	170894	2600.89383226472	63.687409236775
70	182979	2777.36222893254	35.25491973843
70	194267	2959.58867765786	29.234204739592
70	209348	3191.7811922401	40.961151754681
70	220904	3367.76061751121	52.017611993208
70	233145	3562.24974878557	376.19101518473
71	21693	241.52685029884	1041.9756138003
71	34378	453.6061882209	993.19092525482
71	47632	658.06864989373	2422.0039799383
71	61973	911.7788105187	1126.909363009
71	73518	1084.00634036995	690.02336736355
71	85551	1270.13546970311	172.20151056541
71	96390	1441.73678374386	270.4856296242
71	109379	1643.02140240539	453.8012781582
71	120383	1820.19154008938	1301.3186253018
71	132097	1991.79643576323	190.83052898354
71	144403	2187.34829334894	2149.991776501
71	158028	2404.00803924065	1945.4792604867
71	171205	2602.50742269077	2099.647167434
71	182901	2777.24255263482	565.8904323436
71	195170	2976.1428308187	29.716815135732
71	206674	3154.05345518137	236.70612479006
71	218054	3325.65953298266	117.17250847385
71	230956	3516.84586047106	77.504606535747
72	21956	243.89696058646	779.14931038032
72	33686	435.35159456084	1868.6240499628
72	45941	627.41166990871	126.85933672263
72	57556	814.06807794308	2316.4520411467
72	68512	995.2930273195	151.22265237715
72	79556	1178.59099631102	310.35641857389
72	93674	1381.63725384732	502.19974047075
72	104108	1555.04763413592	233.6258307465
72	116698	1742.51696590229	54.427069626098
72	131052	1965.01936676163	528.44881710286
72	142457	2142.45174135419	639.02926147947
72	154335	2329.05413358452	592.62416083188
72	166032	2517.90586337384	52.711315822809
72	177230	2691.58897018487	734.68321971721
72	187693	2865.94614742129	240.72566050368
72	199263	3040.56246293777	140.44572551885
72	210982	3212.09376843139	537.52549977954
72	225710	3436.01220064744	1449.1470203562
73	22040	245.14656839211	295.4745262566
73	33000	426.64881913524	7.9550338456109
73	43236	598.31671210852	249.29990087276
73	53217	772.10497996778	299.29490752115
73	64511	950.5800932821	147.09672093971
73	77567	1150.21069307869	35.809209939246
73	89876	1339.87624701067	181.69715803931
73	104913	1565.31012267445	377.80529894385
73	117236	1755.45800080391	85.982769218546
73	132258	1996.44998427974	4.3569714787183
73	147093	2235.43670464746	633.10916522921
73	158285	2408.88111246155	1178.546946598
73	170074	2590.95458434911	101.87623855526
73	181919	2767.939785334	837.92915283542
73	193680	2952.83459556594	2222.9713239502
73	208509	3180.88198455754	353.36813098987
73	219995	3352.85885464332	395.00888913074
73	234520	3582.84973184787	559.41287842144
74	22379	247.34810926159	1.0336737031951
74	32922	426.64495360325	735.42703786004
74	44068	603.18780124545	78.290391266725
74	59921	843.26475423119	810.52365952469
74	71523	1036.8312212136	334.42554721483
74	83742	1237.42653819791	162.15976897138
74	95585	1418.59522378429	247.12444114426
74	107437	1607.1600775496	986.5185955656
74	121304	1839.49839003545	94.700520622293
74	133363	2022.68259215817	278.3284321299
74	147409	2236.62865371914	270.64277668904
74	159723	2430.90877182652	1226.6511562229
74	171719	2611.91010622225	609.01397816855
74	188539	2875.81102942309	1546.7704684851
74	199853	3047.06920286155	2821.115988252
74	212426	3234.6856608364	442.77896688353
74	224143	3413.15120946127	972.14068512208
75	22624	250.97958287589	289.9815623266
75	35469	464.88826448642	341.10264034386
75	49254	706.23666776514	202.71355172138
75	62393	920.00197767269	587.99214315569
75	75374	1116.58730186596	463.22137351931
75	91781	1362.2435564394	510.35733749375
75	104423	1557.53901906362	482.973404791
75	119284	1785.42099631868	2532.4038525111
75	131758	1982.76740271262	747.58652500707
75	145762	2211.24072496615	287.66449120213
75	157332	2389.89937498023	417.2786904229
75	170661	2599.27611354227	1108.0902496557
75	182320	2771.72032109847	329.94189062839
75	193365	2950.48523685833	585.13211025068
75	206139	3144.96575903593	1191.7909573978
75	218612	3331.16512208243	882.5449663164
75	231625	3534.76873823762	513.75929265753
76	22787	255.62496776303	270.0044851881
76	35884	467.76826490612	176.99262468417
76	47262	645.38370684517	1083.1298217581
76	59178	832.28930868748	166.16013954854
76	69254	1007.18670517656	147.84143336804
76	81045	1193.65630711382	1058.5198362925
76	93415	1378.7409587593	11.19198557236
76	103854	1552.77638304281	611.2051073579
76	115342	1730.63913022344	351.99823424325
76	126764	1905.06813247811	360.36205091175
76	141898	2136.02473662051	700.28630593108
76	153684	2318.87809703251	149.73896498845
76	164896	2496.72256969023	241.13851478436
76	178362	2702.62948694939	551.590375449
76	189228	2889.96202193412	780.64516198159
76	202114	3076.43700873211	1917.5477146478
76	213744	3252.60191453293	62.975541386307
76	226951	3447.53378527328	366.67088293879
77	22866	256.352772916	769.56579049047
77	36235	472.78807805269	166.87246034178
77	48914	692.68597083167	106.18886340075
77	60266	866.86784997925	810.24553831899
77	74188	1091.78147357847	1407.9121691949
77	85819	1279.39933313513	453.91778521911
77	98425	1477.31708475917	458.518872017
77	115598	1732.81388420728	471.38903394158
77	129291	1942.48614174469	154.89438839588
77	140657	2114.18547752542	38.579725255784
77	156858	2376.24347017502	171.4054930814
77	169336	2567.48604385413	915.69101226178
77	180897	2747.35925333281	794.75560272902
77	194825	2969.41142687267	2363.4827756624
77	206848	3155.92284281246	545.20640280422
77	219825	3349.11610747546	56.206438148558
77	231547	3534.0153285793	917.34463690671
78	23305	260.50348527792	32.312201659637
78	33946	438.03483392207	1062.5291547836
78	46781	640.61321297355	1031.7719317831
78	59003	831.62289160195	333.30180929822
78	72520	1060.16903812128	309.44222959756
78	85468	1268.85411095216	656.69935708987
78	98932	1487.55275788578	714.48476707579
78	111555	1683.02228454737	995.97067668165
78	123296	1865.57575151871	336.96776170703
78	136162	2060.19558021202	1869.9762283234
78	148329	2241.99575914276	113.95306845073
78	158803	2413.90851379184	288.76763174217
78	170816	2600.69250575985	277.26160113506
78	182821	2776.26951937177	515.73101306371
78	195686	2981.92077777022	163.41794222263
78	208004	3171.25769782388	10.718917876542
78	219489	3346.08547995508	533.41112178619
78	231035	3517.35924751856	272.88372584627
79	24338	287.1851883358	603.4396898299
79	35966	468.58210206199	31.631140606549
79	47710	658.13958149612	194.49829819947
79	61074	884.01241411903	1962.7470890897
79	73339	1079.15624816579	1139.4562356102
79	86495	1290.35775436173	345.49427928161
79	98503	1477.36593275162	869.47161108757
79	110965	1676.09490428263	424.17355490034
79	122142	1850.16022033457	184.51491408196
79	133695	2025.58187457011	343.47348402007
79	145099	2202.65951336303	667.88774619906
79	161271	2441.10420031918	543.99263486989
79	172286	2618.9948850673	639.4356135786
79	185231	2825.9044714459	333.58540789497
79	197023	3011.48130395817	459.19298301281
79	208841	3183.603155884	625.53361854804
79	221828	3379.7713393455	42.799688774365
79	233065	3561.71227204659	281.37505075303

