version 3
run N75-19-20260518-02:27:15-159888
attr configname N75
attr datetime 20260518-02:27:15
attr datetimef 20260518-022715
attr experiment N75
attr inifile omnetpp.ini
attr iterationvars "$0=\"avg\""
attr iterationvarsd avg
attr iterationvarsf avg-
attr measurement "$0=\"avg\""
attr network test2.LoRaNetworkTest
attr processid 159888
attr repetition 19
attr replication #19
attr resultdir results
attr runnumber 19
attr seedset 19
config extends General
config **.numPatients 75
config network test2.LoRaNetworkTest
config sim-time-limit 1h
config warmup-period 60s
config simtime-resolution -11
config repeat 30
config rng-class cMersenneTwister
config record-eventlog false
config **.numPatients 20
config **.HospitalServer.app[0].queueLength:vector.vector-recording true
config **.HospitalServer.app[0].urgentWaitTime:vector.vector-recording true
config **.HospitalServer.app[0].normalWaitTime:vector.vector-recording true
config **.HospitalServer.app[0].urgentEndToEndDelay:vector.vector-recording true
config **.HospitalServer.app[0].normalEndToEndDelay:vector.vector-recording true
config **.loRaNodes[*].app[0].emergencyVariate:vector.vector-recording true
config **.vector-recording false
config **.loRaNodes[0].**.initialX "300m + uniform(-10m, 10m)"
config **.loRaNodes[0].**.initialY "250m + uniform(-8m, 8m)"
config **.loRaNodes[1].**.initialX "450m + uniform(-10m, 10m)"
config **.loRaNodes[1].**.initialY "250m + uniform(-8m, 8m)"
config **.loRaNodes[2].**.initialX "600m + uniform(-10m, 10m)"
config **.loRaNodes[2].**.initialY "250m + uniform(-8m, 8m)"
config **.loRaNodes[3].**.initialX "750m + uniform(-10m, 10m)"
config **.loRaNodes[3].**.initialY "250m + uniform(-8m, 8m)"
config **.loRaNodes[4].**.initialX "900m + uniform(-10m, 10m)"
config **.loRaNodes[4].**.initialY "250m + uniform(-8m, 8m)"
config **.loRaNodes[5].**.initialX "1050m + uniform(-10m, 10m)"
config **.loRaNodes[5].**.initialY "250m + uniform(-8m, 8m)"
config **.loRaNodes[6].**.initialX "1200m + uniform(-10m, 10m)"
config **.loRaNodes[6].**.initialY "250m + uniform(-8m, 8m)"
config **.loRaNodes[7].**.initialX "1350m + uniform(-10m, 10m)"
config **.loRaNodes[7].**.initialY "250m + uniform(-8m, 8m)"
config **.loRaNodes[8].**.initialX "1500m + uniform(-10m, 10m)"
config **.loRaNodes[8].**.initialY "250m + uniform(-8m, 8m)"
config **.loRaNodes[9].**.initialX "1650m + uniform(-10m, 10m)"
config **.loRaNodes[9].**.initialY "250m + uniform(-8m, 8m)"
config **.loRaNodes[10].**.initialX "300m + uniform(-10m, 10m)"
config **.loRaNodes[10].**.initialY "370m + uniform(-8m, 8m)"
config **.loRaNodes[11].**.initialX "450m + uniform(-10m, 10m)"
config **.loRaNodes[11].**.initialY "370m + uniform(-8m, 8m)"
config **.loRaNodes[12].**.initialX "600m + uniform(-10m, 10m)"
config **.loRaNodes[12].**.initialY "370m + uniform(-8m, 8m)"
config **.loRaNodes[13].**.initialX "750m + uniform(-10m, 10m)"
config **.loRaNodes[13].**.initialY "370m + uniform(-8m, 8m)"
config **.loRaNodes[14].**.initialX "900m + uniform(-10m, 10m)"
config **.loRaNodes[14].**.initialY "370m + uniform(-8m, 8m)"
config **.loRaNodes[15].**.initialX "1050m + uniform(-10m, 10m)"
config **.loRaNodes[15].**.initialY "370m + uniform(-8m, 8m)"
config **.loRaNodes[16].**.initialX "1200m + uniform(-10m, 10m)"
config **.loRaNodes[16].**.initialY "370m + uniform(-8m, 8m)"
config **.loRaNodes[17].**.initialX "1350m + uniform(-10m, 10m)"
config **.loRaNodes[17].**.initialY "370m + uniform(-8m, 8m)"
config **.loRaNodes[18].**.initialX "1500m + uniform(-10m, 10m)"
config **.loRaNodes[18].**.initialY "370m + uniform(-8m, 8m)"
config **.loRaNodes[19].**.initialX "1650m + uniform(-10m, 10m)"
config **.loRaNodes[19].**.initialY "370m + uniform(-8m, 8m)"
config **.loRaNodes[20].**.initialX "300m + uniform(-10m, 10m)"
config **.loRaNodes[20].**.initialY "490m + uniform(-8m, 8m)"
config **.loRaNodes[21].**.initialX "450m + uniform(-10m, 10m)"
config **.loRaNodes[21].**.initialY "490m + uniform(-8m, 8m)"
config **.loRaNodes[22].**.initialX "600m + uniform(-10m, 10m)"
config **.loRaNodes[22].**.initialY "490m + uniform(-8m, 8m)"
config **.loRaNodes[23].**.initialX "750m + uniform(-10m, 10m)"
config **.loRaNodes[23].**.initialY "490m + uniform(-8m, 8m)"
config **.loRaNodes[24].**.initialX "900m + uniform(-10m, 10m)"
config **.loRaNodes[24].**.initialY "490m + uniform(-8m, 8m)"
config **.loRaNodes[25].**.initialX "1050m + uniform(-10m, 10m)"
config **.loRaNodes[25].**.initialY "490m + uniform(-8m, 8m)"
config **.loRaNodes[26].**.initialX "1200m + uniform(-10m, 10m)"
config **.loRaNodes[26].**.initialY "490m + uniform(-8m, 8m)"
config **.loRaNodes[27].**.initialX "1350m + uniform(-10m, 10m)"
config **.loRaNodes[27].**.initialY "490m + uniform(-8m, 8m)"
config **.loRaNodes[28].**.initialX "1500m + uniform(-10m, 10m)"
config **.loRaNodes[28].**.initialY "490m + uniform(-8m, 8m)"
config **.loRaNodes[29].**.initialX "1650m + uniform(-10m, 10m)"
config **.loRaNodes[29].**.initialY "490m + uniform(-8m, 8m)"
config **.loRaNodes[30].**.initialX "300m + uniform(-10m, 10m)"
config **.loRaNodes[30].**.initialY "610m + uniform(-8m, 8m)"
config **.loRaNodes[31].**.initialX "450m + uniform(-10m, 10m)"
config **.loRaNodes[31].**.initialY "610m + uniform(-8m, 8m)"
config **.loRaNodes[32].**.initialX "600m + uniform(-10m, 10m)"
config **.loRaNodes[32].**.initialY "610m + uniform(-8m, 8m)"
config **.loRaNodes[33].**.initialX "750m + uniform(-10m, 10m)"
config **.loRaNodes[33].**.initialY "610m + uniform(-8m, 8m)"
config **.loRaNodes[34].**.initialX "900m + uniform(-10m, 10m)"
config **.loRaNodes[34].**.initialY "610m + uniform(-8m, 8m)"
config **.loRaNodes[35].**.initialX "1050m + uniform(-10m, 10m)"
config **.loRaNodes[35].**.initialY "610m + uniform(-8m, 8m)"
config **.loRaNodes[36].**.initialX "1200m + uniform(-10m, 10m)"
config **.loRaNodes[36].**.initialY "610m + uniform(-8m, 8m)"
config **.loRaNodes[37].**.initialX "1350m + uniform(-10m, 10m)"
config **.loRaNodes[37].**.initialY "610m + uniform(-8m, 8m)"
config **.loRaNodes[38].**.initialX "1500m + uniform(-10m, 10m)"
config **.loRaNodes[38].**.initialY "610m + uniform(-8m, 8m)"
config **.loRaNodes[39].**.initialX "1650m + uniform(-10m, 10m)"
config **.loRaNodes[39].**.initialY "610m + uniform(-8m, 8m)"
config **.loRaNodes[40].**.initialX "300m + uniform(-10m, 10m)"
config **.loRaNodes[40].**.initialY "730m + uniform(-8m, 8m)"
config **.loRaNodes[41].**.initialX "450m + uniform(-10m, 10m)"
config **.loRaNodes[41].**.initialY "730m + uniform(-8m, 8m)"
config **.loRaNodes[42].**.initialX "600m + uniform(-10m, 10m)"
config **.loRaNodes[42].**.initialY "730m + uniform(-8m, 8m)"
config **.loRaNodes[43].**.initialX "750m + uniform(-10m, 10m)"
config **.loRaNodes[43].**.initialY "730m + uniform(-8m, 8m)"
config **.loRaNodes[44].**.initialX "900m + uniform(-10m, 10m)"
config **.loRaNodes[44].**.initialY "730m + uniform(-8m, 8m)"
config **.loRaNodes[45].**.initialX "1050m + uniform(-10m, 10m)"
config **.loRaNodes[45].**.initialY "730m + uniform(-8m, 8m)"
config **.loRaNodes[46].**.initialX "1200m + uniform(-10m, 10m)"
config **.loRaNodes[46].**.initialY "730m + uniform(-8m, 8m)"
config **.loRaNodes[47].**.initialX "1350m + uniform(-10m, 10m)"
config **.loRaNodes[47].**.initialY "730m + uniform(-8m, 8m)"
config **.loRaNodes[48].**.initialX "1500m + uniform(-10m, 10m)"
config **.loRaNodes[48].**.initialY "730m + uniform(-8m, 8m)"
config **.loRaNodes[49].**.initialX "1650m + uniform(-10m, 10m)"
config **.loRaNodes[49].**.initialY "730m + uniform(-8m, 8m)"
config **.loRaNodes[50].**.initialX "300m + uniform(-10m, 10m)"
config **.loRaNodes[50].**.initialY "850m + uniform(-8m, 8m)"
config **.loRaNodes[51].**.initialX "450m + uniform(-10m, 10m)"
config **.loRaNodes[51].**.initialY "850m + uniform(-8m, 8m)"
config **.loRaNodes[52].**.initialX "600m + uniform(-10m, 10m)"
config **.loRaNodes[52].**.initialY "850m + uniform(-8m, 8m)"
config **.loRaNodes[53].**.initialX "750m + uniform(-10m, 10m)"
config **.loRaNodes[53].**.initialY "850m + uniform(-8m, 8m)"
config **.loRaNodes[54].**.initialX "900m + uniform(-10m, 10m)"
config **.loRaNodes[54].**.initialY "850m + uniform(-8m, 8m)"
config **.loRaNodes[55].**.initialX "1050m + uniform(-10m, 10m)"
config **.loRaNodes[55].**.initialY "850m + uniform(-8m, 8m)"
config **.loRaNodes[56].**.initialX "1200m + uniform(-10m, 10m)"
config **.loRaNodes[56].**.initialY "850m + uniform(-8m, 8m)"
config **.loRaNodes[57].**.initialX "1350m + uniform(-10m, 10m)"
config **.loRaNodes[57].**.initialY "850m + uniform(-8m, 8m)"
config **.loRaNodes[58].**.initialX "1500m + uniform(-10m, 10m)"
config **.loRaNodes[58].**.initialY "850m + uniform(-8m, 8m)"
config **.loRaNodes[59].**.initialX "1650m + uniform(-10m, 10m)"
config **.loRaNodes[59].**.initialY "850m + uniform(-8m, 8m)"
config **.loRaNodes[60].**.initialX "300m + uniform(-10m, 10m)"
config **.loRaNodes[60].**.initialY "970m + uniform(-8m, 8m)"
config **.loRaNodes[61].**.initialX "450m + uniform(-10m, 10m)"
config **.loRaNodes[61].**.initialY "970m + uniform(-8m, 8m)"
config **.loRaNodes[62].**.initialX "600m + uniform(-10m, 10m)"
config **.loRaNodes[62].**.initialY "970m + uniform(-8m, 8m)"
config **.loRaNodes[63].**.initialX "750m + uniform(-10m, 10m)"
config **.loRaNodes[63].**.initialY "970m + uniform(-8m, 8m)"
config **.loRaNodes[64].**.initialX "900m + uniform(-10m, 10m)"
config **.loRaNodes[64].**.initialY "970m + uniform(-8m, 8m)"
config **.loRaNodes[65].**.initialX "1050m + uniform(-10m, 10m)"
config **.loRaNodes[65].**.initialY "970m + uniform(-8m, 8m)"
config **.loRaNodes[66].**.initialX "1200m + uniform(-10m, 10m)"
config **.loRaNodes[66].**.initialY "970m + uniform(-8m, 8m)"
config **.loRaNodes[67].**.initialX "1350m + uniform(-10m, 10m)"
config **.loRaNodes[67].**.initialY "970m + uniform(-8m, 8m)"
config **.loRaNodes[68].**.initialX "1500m + uniform(-10m, 10m)"
config **.loRaNodes[68].**.initialY "970m + uniform(-8m, 8m)"
config **.loRaNodes[69].**.initialX "1650m + uniform(-10m, 10m)"
config **.loRaNodes[69].**.initialY "970m + uniform(-8m, 8m)"
config **.loRaNodes[70].**.initialX "300m + uniform(-10m, 10m)"
config **.loRaNodes[70].**.initialY "1090m + uniform(-8m, 8m)"
config **.loRaNodes[71].**.initialX "450m + uniform(-10m, 10m)"
config **.loRaNodes[71].**.initialY "1090m + uniform(-8m, 8m)"
config **.loRaNodes[72].**.initialX "600m + uniform(-10m, 10m)"
config **.loRaNodes[72].**.initialY "1090m + uniform(-8m, 8m)"
config **.loRaNodes[73].**.initialX "750m + uniform(-10m, 10m)"
config **.loRaNodes[73].**.initialY "1090m + uniform(-8m, 8m)"
config **.loRaNodes[74].**.initialX "900m + uniform(-10m, 10m)"
config **.loRaNodes[74].**.initialY "1090m + uniform(-8m, 8m)"
config **.HospitalServer.numApps 1
config **.HospitalServer.app[0].typename HospitalServerApp
config **.HospitalServer.app[0].destPort 2000
config **.HospitalServer.app[0].localPort 1000
config **.HospitalServer.app[0].adrMethod "\"avg\""
config **.HospitalServer.**.evaluateADRinServer true
config **.HospitalServer.app[0].queueSize 50
config **.HospitalServer.app[0].expo_rate_lambda 0.83
config **.loRaGateway.numUdpApps 1
config **.loRaGateway.packetForwarder.localPort 2000
config **.loRaGateway.packetForwarder.destPort 1000
config **.loRaGateway.packetForwarder.destAddresses "\"HospitalServer\""
config **.loRaGateway.**.initFromDisplayString false
config **.loRaGateway.**.initialX 544.00m
config **.loRaGateway.**.initialY 544.00m
config **.loRaNodes[*].numApps 1
config **.loRaNodes[*].app[0].typename PatientSensorApp
config **.loRaNodes[*].app[0].expo_rate_lambda 0.00175
config **.loRaNodes[*].app[0].emergencyThreshold 50
config **.loRaNodes[*].**.timeToFirstPacket exponential(24s)
config **.loRaNodes[*].**.timeToNextPacket exponential(24s)
config **.loRaNodes[*].**.numberOfPacketsToSend 0
config **.loRaNodes[*].**initialLoRaSF 12
config **.loRaNodes[*].**initialLoRaTP 14dBm
config **.loRaNodes[*].**initialLoRaBW "125 kHz"
config **.loRaNodes[*].**initialLoRaCR 4
config **.loRaNodes[*].**.initFromDisplayString false
config **.loRaNodes[*].**.evaluateADRinNode true
config **.loRaNodes[*].LoRaNic.radio.energyConsumer.typename LoRaEnergyConsumer
config **.loRaNodes[*].**.energySourceModule "\"^.IdealEpEnergyStorage\""
config **.loRaNodes[*].LoRaNic.radio.energyConsumer.configFile "xmldoc(\"energyConsumptionParam.xml\")"
config **.maxTransmissionDuration 4s
config **.energyDetection -110dBm
config **.radio.radioMediumModule "\"LoRaMedium\""
config **.minInterferenceTime 0s
config **.constraintAreaMinX 0m
config **.constraintAreaMinY 0m
config **.constraintAreaMinZ 0m
config **.constraintAreaMaxZ 0m
config **.constraintAreaMaxX 3000.0m
config **.constraintAreaMaxY 3000.0m

vector 0 LoRaNetworkTest.loRaNodes[29].app[0] emergencyVariate:vector ETV
attr recordingmode vector
attr title "Exponential variate samples"
vector 1 LoRaNetworkTest.loRaNodes[64].app[0] emergencyVariate:vector ETV
attr recordingmode vector
attr title "Exponential variate samples"
vector 2 LoRaNetworkTest.HospitalServer.app[0] queueLength:vector ETV
attr recordingmode vector
attr title "Total queue length"
vector 3 LoRaNetworkTest.HospitalServer.app[0] normalWaitTime:vector ETV
attr recordingmode vector
attr title "Normal wait time (s)"
vector 4 LoRaNetworkTest.HospitalServer.app[0] normalEndToEndDelay:vector ETV
attr recordingmode vector
attr title "Normal end-to-end delay (s)"
vector 5 LoRaNetworkTest.loRaNodes[32].app[0] emergencyVariate:vector ETV
attr recordingmode vector
attr title "Exponential variate samples"
vector 6 LoRaNetworkTest.loRaNodes[63].app[0] emergencyVariate:vector ETV
attr recordingmode vector
attr title "Exponential variate samples"
vector 7 LoRaNetworkTest.loRaNodes[62].app[0] emergencyVariate:vector ETV
attr recordingmode vector
attr title "Exponential variate samples"
vector 8 LoRaNetworkTest.loRaNodes[27].app[0] emergencyVariate:vector ETV
attr recordingmode vector
attr title "Exponential variate samples"
vector 9 LoRaNetworkTest.loRaNodes[70].app[0] emergencyVariate:vector ETV
attr recordingmode vector
attr title "Exponential variate samples"
vector 10 LoRaNetworkTest.loRaNodes[59].app[0] emergencyVariate:vector ETV
attr recordingmode vector
attr title "Exponential variate samples"
vector 11 LoRaNetworkTest.loRaNodes[42].app[0] emergencyVariate:vector ETV
attr recordingmode vector
attr title "Exponential variate samples"
vector 12 LoRaNetworkTest.loRaNodes[1].app[0] emergencyVariate:vector ETV
attr recordingmode vector
attr title "Exponential variate samples"
vector 13 LoRaNetworkTest.loRaNodes[51].app[0] emergencyVariate:vector ETV
attr recordingmode vector
attr title "Exponential variate samples"
vector 14 LoRaNetworkTest.loRaNodes[25].app[0] emergencyVariate:vector ETV
attr recordingmode vector
attr title "Exponential variate samples"
vector 15 LoRaNetworkTest.loRaNodes[74].app[0] emergencyVariate:vector ETV
attr recordingmode vector
attr title "Exponential variate samples"
vector 16 LoRaNetworkTest.loRaNodes[65].app[0] emergencyVariate:vector ETV
attr recordingmode vector
attr title "Exponential variate samples"
vector 17 LoRaNetworkTest.loRaNodes[57].app[0] emergencyVariate:vector ETV
attr recordingmode vector
attr title "Exponential variate samples"
vector 18 LoRaNetworkTest.loRaNodes[55].app[0] emergencyVariate:vector ETV
attr recordingmode vector
attr title "Exponential variate samples"
vector 19 LoRaNetworkTest.loRaNodes[69].app[0] emergencyVariate:vector ETV
attr recordingmode vector
attr title "Exponential variate samples"
vector 20 LoRaNetworkTest.loRaNodes[20].app[0] emergencyVariate:vector ETV
attr recordingmode vector
attr title "Exponential variate samples"
vector 21 LoRaNetworkTest.loRaNodes[47].app[0] emergencyVariate:vector ETV
attr recordingmode vector
attr title "Exponential variate samples"
vector 22 LoRaNetworkTest.loRaNodes[33].app[0] emergencyVariate:vector ETV
attr recordingmode vector
attr title "Exponential variate samples"
vector 23 LoRaNetworkTest.loRaNodes[60].app[0] emergencyVariate:vector ETV
attr recordingmode vector
attr title "Exponential variate samples"
vector 24 LoRaNetworkTest.loRaNodes[28].app[0] emergencyVariate:vector ETV
attr recordingmode vector
attr title "Exponential variate samples"
vector 25 LoRaNetworkTest.loRaNodes[3].app[0] emergencyVariate:vector ETV
attr recordingmode vector
attr title "Exponential variate samples"
vector 26 LoRaNetworkTest.loRaNodes[19].app[0] emergencyVariate:vector ETV
attr recordingmode vector
attr title "Exponential variate samples"
vector 27 LoRaNetworkTest.loRaNodes[34].app[0] emergencyVariate:vector ETV
attr recordingmode vector
attr title "Exponential variate samples"
vector 28 LoRaNetworkTest.loRaNodes[0].app[0] emergencyVariate:vector ETV
attr recordingmode vector
attr title "Exponential variate samples"
vector 29 LoRaNetworkTest.loRaNodes[4].app[0] emergencyVariate:vector ETV
attr recordingmode vector
attr title "Exponential variate samples"
vector 30 LoRaNetworkTest.loRaNodes[21].app[0] emergencyVariate:vector ETV
attr recordingmode vector
attr title "Exponential variate samples"
vector 31 LoRaNetworkTest.loRaNodes[45].app[0] emergencyVariate:vector ETV
attr recordingmode vector
attr title "Exponential variate samples"
vector 32 LoRaNetworkTest.loRaNodes[23].app[0] emergencyVariate:vector ETV
attr recordingmode vector
attr title "Exponential variate samples"
vector 33 LoRaNetworkTest.loRaNodes[13].app[0] emergencyVariate:vector ETV
attr recordingmode vector
attr title "Exponential variate samples"
vector 34 LoRaNetworkTest.loRaNodes[68].app[0] emergencyVariate:vector ETV
attr recordingmode vector
attr title "Exponential variate samples"
vector 35 LoRaNetworkTest.loRaNodes[46].app[0] emergencyVariate:vector ETV
attr recordingmode vector
attr title "Exponential variate samples"
vector 36 LoRaNetworkTest.loRaNodes[18].app[0] emergencyVariate:vector ETV
attr recordingmode vector
attr title "Exponential variate samples"
vector 37 LoRaNetworkTest.loRaNodes[31].app[0] emergencyVariate:vector ETV
attr recordingmode vector
attr title "Exponential variate samples"
vector 38 LoRaNetworkTest.loRaNodes[43].app[0] emergencyVariate:vector ETV
attr recordingmode vector
attr title "Exponential variate samples"
vector 39 LoRaNetworkTest.loRaNodes[44].app[0] emergencyVariate:vector ETV
attr recordingmode vector
attr title "Exponential variate samples"
vector 40 LoRaNetworkTest.loRaNodes[38].app[0] emergencyVariate:vector ETV
attr recordingmode vector
attr title "Exponential variate samples"
vector 41 LoRaNetworkTest.loRaNodes[49].app[0] emergencyVariate:vector ETV
attr recordingmode vector
attr title "Exponential variate samples"
vector 42 LoRaNetworkTest.loRaNodes[53].app[0] emergencyVariate:vector ETV
attr recordingmode vector
attr title "Exponential variate samples"
vector 43 LoRaNetworkTest.loRaNodes[52].app[0] emergencyVariate:vector ETV
attr recordingmode vector
attr title "Exponential variate samples"
vector 44 LoRaNetworkTest.loRaNodes[5].app[0] emergencyVariate:vector ETV
attr recordingmode vector
attr title "Exponential variate samples"
vector 45 LoRaNetworkTest.loRaNodes[72].app[0] emergencyVariate:vector ETV
attr recordingmode vector
attr title "Exponential variate samples"
vector 46 LoRaNetworkTest.loRaNodes[30].app[0] emergencyVariate:vector ETV
attr recordingmode vector
attr title "Exponential variate samples"
vector 47 LoRaNetworkTest.loRaNodes[56].app[0] emergencyVariate:vector ETV
attr recordingmode vector
attr title "Exponential variate samples"
vector 48 LoRaNetworkTest.loRaNodes[17].app[0] emergencyVariate:vector ETV
attr recordingmode vector
attr title "Exponential variate samples"
vector 49 LoRaNetworkTest.loRaNodes[40].app[0] emergencyVariate:vector ETV
attr recordingmode vector
attr title "Exponential variate samples"
vector 50 LoRaNetworkTest.loRaNodes[71].app[0] emergencyVariate:vector ETV
attr recordingmode vector
attr title "Exponential variate samples"
vector 51 LoRaNetworkTest.loRaNodes[2].app[0] emergencyVariate:vector ETV
attr recordingmode vector
attr title "Exponential variate samples"
vector 52 LoRaNetworkTest.loRaNodes[6].app[0] emergencyVariate:vector ETV
attr recordingmode vector
attr title "Exponential variate samples"
vector 53 LoRaNetworkTest.loRaNodes[36].app[0] emergencyVariate:vector ETV
attr recordingmode vector
attr title "Exponential variate samples"
vector 54 LoRaNetworkTest.loRaNodes[11].app[0] emergencyVariate:vector ETV
attr recordingmode vector
attr title "Exponential variate samples"
vector 55 LoRaNetworkTest.loRaNodes[35].app[0] emergencyVariate:vector ETV
attr recordingmode vector
attr title "Exponential variate samples"
vector 56 LoRaNetworkTest.loRaNodes[73].app[0] emergencyVariate:vector ETV
attr recordingmode vector
attr title "Exponential variate samples"
vector 57 LoRaNetworkTest.loRaNodes[54].app[0] emergencyVariate:vector ETV
attr recordingmode vector
attr title "Exponential variate samples"
vector 58 LoRaNetworkTest.loRaNodes[41].app[0] emergencyVariate:vector ETV
attr recordingmode vector
attr title "Exponential variate samples"
vector 59 LoRaNetworkTest.loRaNodes[61].app[0] emergencyVariate:vector ETV
attr recordingmode vector
attr title "Exponential variate samples"
vector 60 LoRaNetworkTest.loRaNodes[22].app[0] emergencyVariate:vector ETV
attr recordingmode vector
attr title "Exponential variate samples"
vector 61 LoRaNetworkTest.loRaNodes[14].app[0] emergencyVariate:vector ETV
attr recordingmode vector
attr title "Exponential variate samples"
vector 62 LoRaNetworkTest.loRaNodes[10].app[0] emergencyVariate:vector ETV
attr recordingmode vector
attr title "Exponential variate samples"
vector 63 LoRaNetworkTest.loRaNodes[58].app[0] emergencyVariate:vector ETV
attr recordingmode vector
attr title "Exponential variate samples"
vector 64 LoRaNetworkTest.loRaNodes[67].app[0] emergencyVariate:vector ETV
attr recordingmode vector
attr title "Exponential variate samples"
vector 65 LoRaNetworkTest.loRaNodes[26].app[0] emergencyVariate:vector ETV
attr recordingmode vector
attr title "Exponential variate samples"
vector 66 LoRaNetworkTest.loRaNodes[48].app[0] emergencyVariate:vector ETV
attr recordingmode vector
attr title "Exponential variate samples"
vector 67 LoRaNetworkTest.loRaNodes[15].app[0] emergencyVariate:vector ETV
attr recordingmode vector
attr title "Exponential variate samples"
vector 68 LoRaNetworkTest.loRaNodes[39].app[0] emergencyVariate:vector ETV
attr recordingmode vector
attr title "Exponential variate samples"
vector 69 LoRaNetworkTest.loRaNodes[24].app[0] emergencyVariate:vector ETV
attr recordingmode vector
attr title "Exponential variate samples"
vector 70 LoRaNetworkTest.loRaNodes[50].app[0] emergencyVariate:vector ETV
attr recordingmode vector
attr title "Exponential variate samples"
vector 71 LoRaNetworkTest.loRaNodes[12].app[0] emergencyVariate:vector ETV
attr recordingmode vector
attr title "Exponential variate samples"
vector 72 LoRaNetworkTest.loRaNodes[8].app[0] emergencyVariate:vector ETV
attr recordingmode vector
attr title "Exponential variate samples"
vector 73 LoRaNetworkTest.loRaNodes[7].app[0] emergencyVariate:vector ETV
attr recordingmode vector
attr title "Exponential variate samples"
vector 74 LoRaNetworkTest.loRaNodes[9].app[0] emergencyVariate:vector ETV
attr recordingmode vector
attr title "Exponential variate samples"
vector 75 LoRaNetworkTest.loRaNodes[66].app[0] emergencyVariate:vector ETV
attr recordingmode vector
attr title "Exponential variate samples"
vector 76 LoRaNetworkTest.loRaNodes[16].app[0] emergencyVariate:vector ETV
attr recordingmode vector
attr title "Exponential variate samples"
vector 77 LoRaNetworkTest.loRaNodes[37].app[0] emergencyVariate:vector ETV
attr recordingmode vector
attr title "Exponential variate samples"
vector 78 LoRaNetworkTest.HospitalServer.app[0] urgentWaitTime:vector ETV
attr recordingmode vector
attr title "Urgent wait time (s)"
vector 79 LoRaNetworkTest.HospitalServer.app[0] urgentEndToEndDelay:vector ETV
attr recordingmode vector
attr title "Urgent end-to-end delay (s)"
0	11792	62.97739111634	510.6972330533
0	24423	309.53463237335	1010.3883255244
0	36530	484.35163357944	252.42242342825
0	49135	687.0680593666	351.86287736087
0	60740	876.97693000896	721.79796924957
0	72729	1067.94380957329	1065.2642904079
0	86608	1297.17703752125	816.90722039992
0	97942	1468.54073367991	520.23281284381
0	110060	1654.48226035634	1725.615147114
0	121379	1838.54016744154	249.85326613649
0	133409	2016.21598663267	344.27266079153
0	145130	2191.29335595594	241.0878444436
0	157807	2382.82547614225	333.28436351445
0	173215	2626.45946201113	237.35855754164
0	186888	2846.92499488273	105.72685252089
0	198353	3019.97216883433	57.124089239608
0	210728	3212.01069525804	131.25745567285
0	225974	3447.54759029404	171.62142375063
1	11957	87.60110231884	304.99747420301
1	23950	277.78062827889	58.526615336526
1	35559	464.963291665	69.827519985115
1	45199	638.32785831496	504.93750552476
1	58194	843.93402960844	13.058058027437
1	71052	1041.6830254511	40.474080307422
1	83209	1228.6399012668	751.73602350031
1	94538	1405.60210618577	220.7402255219
1	106653	1595.22860848768	9.4427424327378
1	118521	1784.96878769809	703.14149700636
1	132649	1999.75853289045	1387.3806600504
1	144505	2178.42692045546	880.85512604572
1	156622	2368.17609154504	662.6510944869
1	169986	2571.45790134838	2729.589599245
1	180082	2746.60778467913	174.65734555223
1	191503	2917.85419024512	50.686261196688
1	205283	3137.93703515401	42.122685405738
1	217285	3318.53521710925	457.33598515153
1	228912	3503.10796669682	559.03071783155
2	12128	89.31323357417	1
2	12128	89.31323357417	0
2	12338	130.50970919832	1
2	12338	130.50970919832	0
2	12732	185.43337427041	1
2	12732	185.43337427041	0
2	13524	191.26969203655	1
2	13524	191.26969203655	0
2	14232	197.69278916774	1
2	14232	197.69278916774	0
2	14843	201.96476389964	1
2	14843	201.96476389964	0
2	15200	203.69597275177	1
2	15200	203.69597275177	0
2	15777	207.38255101633	1
2	15777	207.38255101633	0
2	16176	209.33274192434	1
2	16176	209.33274192434	0
2	16745	211.06782309088	1
2	16745	211.06782309088	0
2	17664	216.10432731083	1
2	17664	216.10432731083	0
2	17868	217.76868816687	1
2	17868	217.76868816687	0
2	18529	221.9313483247	1
2	18529	221.9313483247	0
2	18776	223.59752729767	1
2	19120	225.59165051841	0
2	19265	226.99670953943	1
2	19549	228.74971465556	0
2	20167	231.75836576104	1
2	20167	231.75836576104	0
2	21536	239.3778352083	1
2	21536	239.3778352083	0
2	22646	248.4256245079	1
2	22646	248.4256245079	0
2	22938	251.76434453418	1
2	22938	251.76434453418	0
2	23090	254.92458029917	1
2	23090	254.92458029917	0
2	23265	258.78181514848	1
2	23265	258.78181514848	0
2	24724	324.42088388719	1
2	24724	324.42088388719	0
2	25087	364.89918693128	1
2	25087	364.89918693128	0
2	25245	367.17583105366	1
2	25284	370.15643605188	0
2	25645	375.12648785624	1
2	25645	375.12648785624	0
2	27214	389.13146049028	1
2	27214	389.13146049028	0
2	28452	400.06389296403	1
2	28452	400.06389296403	0
2	28538	401.74839154386	1
2	28744	403.75091544005	0
2	29277	408.01869491184	1
2	29277	408.01869491184	0
2	30507	416.69175641142	1
2	30507	416.69175641142	0
2	31222	419.86809575409	1
2	31669	421.83125488927	0
2	31849	423.27470586755	1
2	31849	423.27470586755	0
2	32197	425.47438675566	1
2	32197	425.47438675566	0
2	32512	433.22424853248	1
2	32512	433.22424853248	0
2	33166	438.47626831402	1
2	33166	438.47626831402	0
2	33763	443.94107674778	1
2	33763	443.94107674778	0
2	34406	449.00893338502	1
2	34406	449.00893338502	0
2	34885	450.93359041348	1
2	34885	450.93359041348	0
2	35209	456.92667525101	1
2	35209	456.92667525101	0
2	35505	460.7793534489	1
2	35505	460.7793534489	0
2	36120	474.32130646897	1
2	36120	474.32130646897	0
2	36679	485.01679322735	1
2	36679	485.01679322735	0
2	37013	492.95177155232	1
2	37013	492.95177155232	0
2	37258	519.62540925568	1
2	37258	519.62540925568	0
2	37430	546.15637374175	1
2	37430	546.15637374175	0
2	37734	551.24704162597	1
2	37734	551.24704162597	0
2	38570	571.21008316839	1
2	38570	571.21008316839	0
2	38815	574.96621290003	1
2	38815	574.96621290003	0
2	39415	579.20982223909	1
2	39415	579.20982223909	0
2	39595	582.95397781967	1
2	39595	582.95397781967	0
2	40029	585.62587106618	1
2	40029	585.62587106618	0
2	40338	588.11872246728	1
2	40338	588.11872246728	0
2	40595	590.72104654649	1
2	40595	590.72104654649	0
2	40949	594.31439863826	1
2	40949	594.31439863826	0
2	41793	601.1564716128	1
2	41793	601.1564716128	0
2	42255	605.24643171806	1
2	42255	605.24643171806	0
2	42615	607.93572391145	1
2	42615	607.93572391145	0
2	42971	613.81922324682	1
2	42971	613.81922324682	0
2	44067	625.60305843131	1
2	44067	625.60305843131	0
2	44413	627.72679841874	1
2	44413	627.72679841874	0
2	44922	635.24018442697	1
2	44922	635.24018442697	0
2	45352	638.79954190106	1
2	45352	638.79954190106	0
2	46371	644.43917784687	1
2	46371	644.43917784687	0
2	47014	649.18661940574	1
2	47014	649.18661940574	0
2	47491	651.03349789746	1
2	47491	651.03349789746	0
2	47779	653.49674453111	1
2	47779	653.49674453111	0
2	48301	662.66747543502	1
2	48301	662.66747543502	0
2	48846	682.12507127139	1
2	48846	682.12507127139	0
2	49436	709.53673558211	1
2	49436	709.53673558211	0
2	49783	721.33583106518	1
2	49783	721.33583106518	0
2	50439	739.00232050177	1
2	50439	739.00232050177	0
2	51419	756.82853595427	1
2	51419	756.82853595427	0
2	51821	763.26431627564	1
2	51821	763.26431627564	0
2	52546	770.46135078247	1
2	52546	770.46135078247	0
2	54551	792.76116937549	1
2	54551	792.76116937549	0
2	54744	795.72853450707	1
2	54744	795.72853450707	0
2	54887	797.89769827625	1
2	54887	797.89769827625	0
2	55234	804.1942881464	1
2	55234	804.1942881464	0
2	55809	811.11578376569	1
2	55809	811.11578376569	0
2	56483	820.59895853085	1
2	56483	820.59895853085	0
2	57076	825.00546571751	1
2	57076	825.00546571751	0
2	57227	828.74213946092	1
2	57227	828.74213946092	0
2	57563	831.69341175466	1
2	57563	831.69341175466	0
2	58103	839.65744008534	1
2	58103	839.65744008534	0
2	58443	845.64616086377	1
2	58443	845.64616086377	0
2	58930	850.16914324531	1
2	58930	850.16914324531	0
2	59085	853.5527455654	1
2	59085	853.5527455654	0
2	59542	858.60389948163	1
2	59542	858.60389948163	0
2	60100	865.26490265879	1
2	60100	865.26490265879	0
2	60432	869.45655543741	1
2	60432	869.45655543741	0
2	60609	872.16045904257	1
2	60609	872.16045904257	0
2	61302	890.25268418256	1
2	61302	890.25268418256	0
2	61835	907.52330892404	1
2	61835	907.52330892404	0
2	61988	917.26339395088	1
2	61988	917.26339395088	0
2	62968	928.10004908031	1
2	62968	928.10004908031	0
2	63376	947.05664076614	1
2	63376	947.05664076614	0
2	63963	951.84271796267	1
2	63963	951.84271796267	0
2	64302	954.00292671479	1
2	64302	954.00292671479	0
2	64508	956.36959234249	1
2	64508	956.36959234249	0
2	66112	969.42922720362	1
2	66112	969.42922720362	0
2	66771	979.24199763642	1
2	66771	979.24199763642	0
2	67241	983.25514435001	1
2	67241	983.25514435001	0
2	67508	986.46463602727	1
2	67508	986.46463602727	0
2	67951	995.43594573677	1
2	67951	995.43594573677	0
2	68468	1002.59502459524	1
2	68468	1002.59502459524	0
2	68692	1005.33967085511	1
2	68692	1005.33967085511	0
2	69032	1010.90523952919	1
2	69032	1010.90523952919	0
2	69338	1016.91843134794	1
2	69338	1016.91843134794	0
2	69644	1026.69158373423	1
2	69644	1026.69158373423	0
2	69884	1028.60030224863	1
2	69884	1028.60030224863	0
2	70025	1030.78048394232	1
2	70025	1030.78048394232	0
2	70478	1033.90068869435	1
2	70478	1033.90068869435	0
2	71421	1044.4519333541	1
2	71421	1044.4519333541	0
2	71886	1055.22920052717	1
2	71886	1055.22920052717	0
2	72026	1057.46615758849	1
2	72026	1057.46615758849	0
2	72372	1061.71450413871	1
2	72372	1061.71450413871	0
2	73114	1070.56448095315	1
2	73114	1070.56448095315	0
2	73367	1073.72002447357	1
2	73413	1075.8513333866	0
2	73748	1082.49007008509	1
2	73748	1082.49007008509	0
2	74377	1105.19664187806	1
2	74377	1105.19664187806	0
2	74567	1109.5013002343	1
2	74567	1109.5013002343	0
2	74903	1115.4738445665	1
2	74903	1115.4738445665	0
2	75153	1119.11758157272	1
2	75153	1119.11758157272	0
2	75601	1125.76316401537	1
2	75601	1125.76316401537	0
2	76424	1136.10951200095	1
2	76424	1136.10951200095	0
2	76817	1139.88254997046	1
2	76817	1139.88254997046	0
2	77503	1148.23273362429	1
2	77503	1148.23273362429	0
2	77789	1150.13051147863	1
2	77789	1150.13051147863	0
2	78423	1156.06532166409	1
2	78423	1156.06532166409	0
2	78601	1158.06316999962	1
2	78601	1158.06316999962	0
2	78819	1163.16539421387	1
2	78819	1163.16539421387	0
2	79080	1166.36813463792	1
2	79080	1166.36813463792	0
2	79566	1172.5429552084	1
2	79566	1172.5429552084	0
2	79968	1175.1877173837	1
2	79968	1175.1877173837	0
2	80461	1183.3679033232	1
2	80461	1183.3679033232	0
2	80742	1185.54970419266	1
2	80742	1185.54970419266	0
2	81097	1188.44373232127	1
2	81097	1188.44373232127	0
2	81485	1198.68379843916	1
2	81485	1198.68379843916	0
2	81821	1203.1167871925	1
2	81821	1203.1167871925	0
2	82483	1215.80308999344	1
2	82483	1215.80308999344	0
2	82780	1219.81989197311	1
2	82780	1219.81989197311	0
2	82881	1221.4910033117	1
2	82881	1221.4910033117	0
2	83900	1233.60167346514	1
2	83900	1233.60167346514	0
2	84205	1239.23821590827	1
2	84205	1239.23821590827	0
2	84464	1243.92975151227	1
2	84464	1243.92975151227	0
2	85171	1256.23830280044	1
2	85171	1256.23830280044	0
2	86047	1278.69827847692	1
2	86047	1278.69827847692	0
2	86926	1298.44813627147	1
2	86926	1298.44813627147	0
2	87407	1305.53440443383	1
2	87407	1305.53440443383	0
2	88013	1311.803055208	1
2	88013	1311.803055208	0
2	88336	1314.96224840121	1
2	88336	1314.96224840121	0
2	88510	1319.86054289077	1
2	88510	1319.86054289077	0
2	88809	1325.26078812434	1
2	88809	1325.26078812434	0
2	89228	1336.05645761408	1
2	89228	1336.05645761408	0
2	89369	1338.75256839106	1
2	89415	1340.38246512837	0
2	89661	1342.10724209902	1
2	89661	1342.10724209902	0
2	89994	1344.61421865823	1
2	89994	1344.61421865823	0
2	91781	1363.36358077833	1
2	91781	1363.36358077833	0
2	92240	1367.46080884722	1
2	92240	1367.46080884722	0
2	92694	1379.23411663975	1
2	92694	1379.23411663975	0
2	93183	1383.92497636888	1
2	93183	1383.92497636888	0
2	93519	1387.00909429018	1
2	93519	1387.00909429018	0
2	94389	1395.41235325719	1
2	94389	1395.41235325719	0
2	94738	1407.3142399451	1
2	94738	1407.3142399451	0
2	94874	1411.0072749801	1
2	94874	1411.0072749801	0
2	95059	1413.02347233906	1
2	95059	1413.02347233906	0
2	95438	1422.99748485255	1
2	95438	1422.99748485255	0
2	95773	1425.3237653496	1
2	95773	1425.3237653496	0
2	96086	1430.56153151296	1
2	96086	1430.56153151296	0
2	96261	1433.31023769859	1
2	96261	1433.31023769859	0
2	96842	1448.55964368969	1
2	96842	1448.55964368969	0
2	97904	1467.97520703203	1
2	97904	1467.97520703203	0
2	98273	1474.8960479375	1
2	98273	1474.8960479375	0
2	98535	1477.71234633963	1
2	98535	1477.71234633963	0
2	98771	1479.70995534872	1
2	98879	1481.35485731366	0
2	99673	1492.48461025992	1
2	99673	1492.48461025992	0
2	100323	1502.32675607317	1
2	100323	1502.32675607317	0
2	100893	1510.24075757545	1
2	100893	1510.24075757545	0
2	101080	1515.18144033121	1
2	101080	1515.18144033121	0
2	101747	1523.41161156125	1
2	101747	1523.41161156125	0
2	102616	1530.54575769295	1
2	102616	1530.54575769295	0
2	103393	1540.13319582036	1
2	103393	1540.13319582036	0
2	103857	1545.08566017974	1
2	103857	1545.08566017974	0
2	104429	1549.08726781107	1
2	104429	1549.08726781107	0
2	104622	1553.58699820169	1
2	104622	1553.58699820169	0
2	104857	1560.89174730087	1
2	104857	1560.89174730087	0
2	105122	1563.10217204827	1
2	105122	1563.10217204827	0
2	105462	1568.46022816265	1
2	105462	1568.46022816265	0
2	106261	1579.88656509298	1
2	106261	1579.88656509298	0
2	106620	1584.51751648829	1
2	106620	1584.51751648829	0
2	106824	1596.94073974301	1
2	106824	1596.94073974301	0
2	107431	1613.30414187493	1
2	107431	1613.30414187493	0
2	108256	1619.73534759184	1
2	108256	1619.73534759184	0
2	108478	1624.96097200769	1
2	108478	1624.96097200769	0
2	109486	1650.78444344155	1
2	109486	1650.78444344155	0
2	109943	1653.62994233324	1
2	109943	1653.62994233324	0
2	110605	1661.10854551519	1
2	110605	1661.10854551519	0
2	110878	1663.08270140699	1
2	110878	1663.08270140699	0
2	111164	1668.80468144499	1
2	111164	1668.80468144499	0
2	111714	1682.37570841464	1
2	111714	1682.37570841464	0
2	112214	1685.12767984249	1
2	112321	1686.76707906302	0
2	112468	1688.71994817971	1
2	112468	1688.71994817971	0
2	112727	1691.00081677811	1
2	112727	1691.00081677811	0
2	114300	1721.37627767493	1
2	114300	1721.37627767493	0
2	114640	1725.59530833203	1
2	114640	1725.59530833203	0
2	114874	1728.24194073825	1
2	114900	1728.24923969754	0
2	115609	1737.43920549658	1
2	115609	1737.43920549658	0
2	116184	1748.01447768481	1
2	116184	1748.01447768481	0
2	116543	1753.07712183654	1
2	116543	1753.07712183654	0
2	117673	1761.30759527069	1
2	117673	1761.30759527069	0
2	117933	1764.1697919494	1
2	117933	1764.1697919494	0
2	118331	1776.80963231134	1
2	118331	1776.80963231134	0
2	118501	1778.84336103933	1
2	118519	1783.99109410496	0
2	118847	1787.52849522094	1
2	118847	1787.52849522094	0
2	119299	1791.06490350866	1
2	119299	1791.06490350866	0
2	119712	1792.94486122589	1
2	119757	1793.29380147195	0
2	120232	1802.60864695348	1
2	120232	1802.60864695348	0
2	120485	1804.45031201203	1
2	120485	1804.45031201203	0
2	120673	1811.04018536879	1
2	120673	1811.04018536879	0
2	121176	1833.40119962055	1
2	121176	1833.40119962055	0
2	121592	1839.16616202471	1
2	121592	1839.16616202471	0
2	122171	1844.17657836343	1
2	122171	1844.17657836343	0
2	122835	1848.38027926306	1
2	122835	1848.38027926306	0
2	123177	1857.46152285724	1
2	123177	1857.46152285724	0
2	124300	1866.88017467165	1
2	124300	1866.88017467165	0
2	124496	1872.47277260709	1
2	124496	1872.47277260709	0
2	124709	1875.44244359539	1
2	124709	1875.44244359539	0
2	125160	1878.42253123085	1
2	125160	1878.42253123085	0
2	125393	1886.66729730476	1
2	125393	1886.66729730476	0
2	125840	1897.0753542909	1
2	125840	1897.0753542909	0
2	127110	1912.59983133768	1
2	127110	1912.59983133768	0
2	127372	1917.04034194381	1
2	127372	1917.04034194381	0
2	127576	1919.67186095942	1
2	127576	1919.67186095942	0
2	128048	1927.81771167556	1
2	128048	1927.81771167556	0
2	128555	1933.95487790059	1
2	128555	1933.95487790059	0
2	128734	1935.77150483656	1
2	128734	1935.77150483656	0
2	129230	1943.59816616528	1
2	129230	1943.59816616528	0
2	129559	1947.45459199516	1
2	129559	1947.45459199516	0
2	130250	1955.49619387098	1
2	130250	1955.49619387098	0
2	130752	1965.19815583983	1
2	130752	1965.19815583983	0
2	131051	1968.50200828249	1
2	131051	1968.50200828249	0
2	131283	1973.25225039291	1
2	131283	1973.25225039291	0
2	131425	1977.50304590766	1
2	131543	1978.43655891177	0
2	131837	1981.22116697017	1
2	131837	1981.22116697017	0
2	132142	1984.99040787361	1
2	132142	1984.99040787361	0
2	132602	1998.57410553884	1
2	132602	1998.57410553884	0
2	132900	2001.47066414578	1
2	132900	2001.47066414578	0
2	133125	2010.79078799721	1
2	133125	2010.79078799721	0
2	134165	2022.54054520896	1
2	134165	2022.54054520896	0
2	134480	2029.38840021926	1
2	134480	2029.38840021926	0
2	134732	2032.71200646797	1
2	134732	2032.71200646797	0
2	135186	2038.85728922979	1
2	135186	2038.85728922979	0
2	135488	2042.01766284672	1
2	135488	2042.01766284672	0
2	135757	2044.96525061655	1
2	135757	2044.96525061655	0
2	136023	2049.91353431636	1
2	136023	2049.91353431636	0
2	136516	2059.96928090417	1
2	136516	2059.96928090417	0
2	137369	2077.91245046933	1
2	137369	2077.91245046933	0
2	137697	2081.2538505416	1
2	137697	2081.2538505416	0
2	137858	2085.2341928289	1
2	137858	2085.2341928289	0
2	138445	2093.37567209114	1
2	138445	2093.37567209114	0
2	138893	2097.64119639598	1
2	138893	2097.64119639598	0
2	139075	2100.18316037873	1
2	139075	2100.18316037873	0
2	139711	2109.47588966544	1
2	139711	2109.47588966544	0
2	140061	2116.40587455048	1
2	140061	2116.40587455048	0
2	140337	2122.14232949363	1
2	140337	2122.14232949363	0
2	140827	2125.02315219918	1
2	140827	2125.02315219918	0
2	141541	2139.9517012104	1
2	141541	2139.9517012104	0
2	141944	2143.82368822596	1
2	141944	2143.82368822596	0
2	142414	2147.26066298903	1
2	142414	2147.26066298903	0
2	142761	2152.78023435959	1
2	142761	2152.78023435959	0
2	143645	2169.75230754625	1
2	143645	2169.75230754625	0
2	144136	2174.10024381599	1
2	144136	2174.10024381599	0
2	144634	2178.52078329419	1
2	144684	2180.0681951109	0
2	144927	2183.89849015993	1
2	144927	2183.89849015993	0
2	145088	2190.26816984786	1
2	145088	2190.26816984786	0
2	145440	2193.32261175664	1
2	145440	2193.32261175664	0
2	145625	2197.85641193442	1
2	145625	2197.85641193442	0
2	146206	2201.68021412039	1
2	146206	2201.68021412039	0
2	146837	2206.21264342572	1
2	146837	2206.21264342572	0
2	147262	2214.49239817229	1
2	147262	2214.49239817229	0
2	147479	2218.68139142857	1
2	147479	2218.68139142857	0
2	147945	2224.13415107106	1
2	147945	2224.13415107106	0
2	148369	2238.78689838507	1
2	148369	2238.78689838507	0
2	148628	2241.78231615207	1
2	148628	2241.78231615207	0
2	149000	2254.52178717435	1
2	149000	2254.52178717435	0
2	149463	2260.96988902869	1
2	149463	2260.96988902869	0
2	149715	2264.06240042129	1
2	149715	2264.06240042129	0
2	150648	2281.65940395234	1
2	150648	2281.65940395234	0
2	150947	2283.81861416148	1
2	150947	2283.81861416148	0
2	151189	2289.73380436201	1
2	151189	2289.73380436201	0
2	151366	2293.06943841605	1
2	151366	2293.06943841605	0
2	152123	2303.84431201126	1
2	152123	2303.84431201126	0
2	152614	2307.28463175649	1
2	152704	2307.6885097351	0
2	152897	2317.36411151163	1
2	152897	2317.36411151163	0
2	153130	2321.05068902281	1
2	153130	2321.05068902281	0
2	153487	2323.11083824627	1
2	153487	2323.11083824627	0
2	154066	2329.05290184062	1
2	154066	2329.05290184062	0
2	154257	2331.40876077332	1
2	154257	2331.40876077332	0
2	154640	2335.20809191253	1
2	154640	2335.20809191253	0
2	155077	2340.48020182415	1
2	155077	2340.48020182415	0
2	155419	2345.73750226773	1
2	155419	2345.73750226773	0
2	155754	2351.92811308766	1
2	155754	2351.92811308766	0
2	156156	2359.67418851357	1
2	156156	2359.67418851357	0
2	156601	2368.03705399824	1
2	156601	2368.03705399824	0
2	156948	2369.88822280037	1
2	156948	2369.88822280037	0
2	157196	2373.1312391021	1
2	157196	2373.1312391021	0
2	157605	2379.42236262406	1
2	157605	2379.42236262406	0
2	158637	2388.75346989327	1
2	158637	2388.75346989327	0
2	159211	2391.60392569481	1
2	159211	2391.60392569481	0
2	160082	2407.81859156992	1
2	160082	2407.81859156992	0
2	160589	2413.05233345986	1
2	160589	2413.05233345986	0
2	160936	2427.99274872642	1
2	160936	2427.99274872642	0
2	161266	2432.52283674814	1
2	161266	2432.52283674814	0
2	162080	2451.91882528705	1
2	162080	2451.91882528705	0
2	162462	2458.93161253575	1
2	162462	2458.93161253575	0
2	162603	2461.85181398378	1
2	162603	2461.85181398378	0
2	163293	2475.90857706635	1
2	163293	2475.90857706635	0
2	164436	2492.8268795306	1
2	164436	2492.8268795306	0
2	165075	2498.82065651894	1
2	165075	2498.82065651894	0
2	165512	2504.7900933383	1
2	165512	2504.7900933383	0
2	165884	2512.79269904224	1
2	165884	2512.79269904224	0
2	166749	2520.60462208227	1
2	166749	2520.60462208227	0
2	167557	2547.02050249979	1
2	167557	2547.02050249979	0
2	167914	2550.97207329878	1
2	167914	2550.97207329878	0
2	168238	2554.59456842267	1
2	168523	2556.78827548964	0
2	168595	2557.45650715284	1
2	168595	2557.45650715284	0
2	168802	2559.23862348922	1
2	168802	2559.23862348922	0
2	168971	2561.37760132807	1
2	168971	2561.37760132807	0
2	169603	2568.33907113154	1
2	169603	2568.33907113154	0
2	169976	2571.08338167874	1
2	169976	2571.08338167874	0
2	170605	2578.02739265345	1
2	170605	2578.02739265345	0
2	170794	2581.80452522141	1
2	170794	2581.80452522141	0
2	171298	2584.48314603904	1
2	171298	2584.48314603904	0
2	171951	2596.83434255391	1
2	171951	2596.83434255391	0
2	172203	2600.37541605317	1
2	172326	2600.97814630127	0
2	172460	2602.52890207	1
2	172460	2602.52890207	0
2	172687	2605.49132205117	1
2	172687	2605.49132205117	0
2	173016	2615.93029935718	1
2	173016	2615.93029935718	0
2	173175	2626.00749122836	1
2	173175	2626.00749122836	0
2	173706	2631.88548948617	1
2	173706	2631.88548948617	0
2	174238	2641.5598474911	1
2	174238	2641.5598474911	0
2	175099	2664.98217623458	1
2	175099	2664.98217623458	0
2	175360	2667.14304447795	1
2	175360	2667.14304447795	0
2	175536	2670.00566506763	1
2	175536	2670.00566506763	0
2	176080	2678.11406403003	1
2	176080	2678.11406403003	0
2	176552	2683.9562282958	1
2	176552	2683.9562282958	0
2	177309	2695.68948391182	1
2	177309	2695.68948391182	0
2	177861	2701.9674862288	1
2	177861	2701.9674862288	0
2	178540	2722.51603863297	1
2	178540	2722.51603863297	0
2	178871	2724.92739039305	1
2	178898	2725.38994850019	0
2	179126	2729.99307489298	1
2	179126	2729.99307489298	0
2	179391	2738.18526282676	1
2	179391	2738.18526282676	0
2	179586	2743.04247094009	1
2	179586	2743.04247094009	0
2	180238	2746.93402332489	1
2	180238	2746.93402332489	0
2	181369	2752.78504803728	1
2	181369	2752.78504803728	0
2	181572	2755.09918971482	1
2	181572	2755.09918971482	0
2	182183	2761.6313210124	1
2	182183	2761.6313210124	0
2	182416	2767.68427137885	1
2	182416	2767.68427137885	0
2	182752	2773.34103498723	1
2	182752	2773.34103498723	0
2	183011	2776.84868069936	1
2	183011	2776.84868069936	0
2	183358	2779.31929416605	1
2	183358	2779.31929416605	0
2	184651	2791.63053950211	1
2	184651	2791.63053950211	0
2	184951	2796.97139968564	1
2	184951	2796.97139968564	0
2	185185	2799.34771177271	1
2	185185	2799.34771177271	0
2	185480	2804.05022440265	1
2	185480	2804.05022440265	0
2	186215	2820.80901667993	1
2	186215	2820.80901667993	0
2	186602	2837.25182383319	1
2	186602	2837.25182383319	0
2	187256	2849.1443135789	1
2	187256	2849.1443135789	0
2	187559	2854.80838517158	1
2	187559	2854.80838517158	0
2	187776	2858.77621544776	1
2	187776	2858.77621544776	0
2	188129	2862.16623597849	1
2	188129	2862.16623597849	0
2	188694	2874.9811681791	1
2	188694	2874.9811681791	0
2	189418	2883.29910842909	1
2	189418	2883.29910842909	0
2	190074	2887.87885949734	1
2	190074	2887.87885949734	0
2	190324	2897.43082193396	1
2	190324	2897.43082193396	0
2	191117	2914.10907423467	1
2	191117	2914.10907423467	0
2	191395	2916.63646701599	1
2	191395	2916.63646701599	0
2	191680	2919.56632150045	1
2	191680	2919.56632150045	0
2	192375	2923.94642615497	1
2	192375	2923.94642615497	0
2	193516	2936.25969945012	1
2	193516	2936.25969945012	0
2	193803	2940.01971796502	1
2	193803	2940.01971796502	0
2	194001	2944.22304020829	1
2	194001	2944.22304020829	0
2	194148	2948.72867621818	1
2	194148	2948.72867621818	0
2	194807	2957.84611663676	1
2	194807	2957.84611663676	0
2	195299	2970.86992777492	1
2	195299	2970.86992777492	0
2	195565	2974.60405994727	1
2	195565	2974.60405994727	0
2	196151	2980.13047381546	1
2	196151	2980.13047381546	0
2	196950	2985.77633912694	1
2	196950	2985.77633912694	0
2	197147	2989.50481410945	1
2	197147	2989.50481410945	0
2	197661	2994.34338501136	1
2	197661	2994.34338501136	0
2	197842	3002.40645305593	1
2	197842	3002.40645305593	0
2	198714	3026.32033338672	1
2	198714	3026.32033338672	0
2	199165	3030.32197231129	1
2	199165	3030.32197231129	0
2	199590	3037.80077945198	1
2	199590	3037.80077945198	0
2	199962	3040.79231267382	1
2	199962	3040.79231267382	0
2	200392	3045.86173826296	1
2	200392	3045.86173826296	0
2	200539	3053.02667012646	1
2	200539	3053.02667012646	0
2	200958	3056.46950559378	1
2	200958	3056.46950559378	0
2	202505	3070.38047637506	1
2	202505	3070.38047637506	0
2	202866	3093.42374336909	1
2	202866	3093.42374336909	0
2	203209	3097.7336779973	1
2	203209	3097.7336779973	0
2	203540	3102.05377001916	1
2	203540	3102.05377001916	0
2	203881	3105.6039883891	1
2	203881	3105.6039883891	0
2	204074	3109.12700254884	1
2	204074	3109.12700254884	0
2	204252	3111.20916085537	1
2	204265	3115.37868116276	0
2	204868	3123.72039220681	1
2	204868	3123.72039220681	0
2	205056	3133.45948562984	1
2	205056	3133.45948562984	0
2	205275	3135.94237393951	1
2	205275	3135.94237393951	0
2	206204	3143.31898829923	1
2	206204	3143.31898829923	0
2	206389	3145.34956853399	1
2	206389	3145.34956853399	0
2	207118	3156.80761738545	1
2	207118	3156.80761738545	0
2	207758	3164.37525062304	1
2	207758	3164.37525062304	0
2	207922	3176.31377838306	1
2	207922	3176.31377838306	0
2	208342	3181.69217349762	1
2	208342	3181.69217349762	0
2	208950	3185.58916244188	1
2	208950	3185.58916244188	0
2	209331	3187.70267913137	1
2	209331	3187.70267913137	0
2	209766	3192.51093188986	1
2	209766	3192.51093188986	0
2	210144	3202.10860124105	1
2	210144	3202.10860124105	0
2	210601	3209.43044199674	1
2	210601	3209.43044199674	0
2	211641	3215.22874085976	1
2	211641	3215.22874085976	0
2	212244	3233.27769092403	1
2	212244	3233.27769092403	0
2	212582	3235.65364369115	1
2	212696	3236.60121273358	0
2	213078	3240.88693992558	1
2	213349	3242.72920048502	2
2	213380	3243.60885731775	1
2	213463	3244.42588634071	0
2	213621	3246.9991386815	1
2	213621	3246.9991386815	0
2	214461	3254.59563299345	1
2	214461	3254.59563299345	0
2	215117	3269.82997772328	1
2	215117	3269.82997772328	0
2	216126	3290.51120983195	1
2	216126	3290.51120983195	0
2	216308	3294.28704552526	1
2	216308	3294.28704552526	0
2	217195	3317.25697604033	1
2	217195	3317.25697604033	0
2	217609	3321.67778100648	1
2	217609	3321.67778100648	0
2	217859	3331.14335598199	1
2	217859	3331.14335598199	0
2	218262	3333.39316757409	1
2	218262	3333.39316757409	0
2	218656	3339.30128567353	1
2	218656	3339.30128567353	0
2	218823	3342.10288506272	1
2	218823	3342.10288506272	0
2	219241	3350.05472446307	1
2	219241	3350.05472446307	0
2	219492	3353.23742584937	1
2	219514	3353.64850193053	0
2	219817	3361.19161841916	1
2	219817	3361.19161841916	0
2	220236	3365.73203387883	1
2	220236	3365.73203387883	0
2	220773	3372.33052872837	1
2	220773	3372.33052872837	0
2	221007	3374.05363117746	1
2	221007	3374.05363117746	0
2	221256	3376.05908089883	1
2	221256	3376.05908089883	0
2	221979	3378.82655130803	1
2	221979	3378.82655130803	0
2	222346	3383.10358109612	1
2	222346	3383.10358109612	0
2	223230	3397.88603352903	1
2	223230	3397.88603352903	0
2	223895	3404.37446547368	1
2	223895	3404.37446547368	0
2	224228	3413.63472182857	1
2	224228	3413.63472182857	0
2	224459	3416.69389557965	1
2	224459	3416.69389557965	0
2	224936	3419.48885037708	1
2	224936	3419.48885037708	0
2	225712	3428.31282717438	1
2	225712	3428.31282717438	0
2	226385	3453.00127351863	1
2	226385	3453.00127351863	0
2	227024	3457.51640353847	1
2	227024	3457.51640353847	0
2	227217	3460.0608610351	1
2	227217	3460.0608610351	0
2	227485	3464.38610653564	1
2	227485	3464.38610653564	0
2	227953	3472.56019464062	1
2	227953	3472.56019464062	0
2	228232	3474.28535108961	1
2	228243	3474.99023501215	0
2	228664	3493.89154755565	1
2	228664	3493.89154755565	0
2	229225	3504.9389681897	1
2	229225	3504.9389681897	0
2	229553	3507.04177035527	1
2	229553	3507.04177035527	0
2	229914	3510.81654503031	1
2	229914	3510.81654503031	0
2	230247	3514.05324171124	1
2	230272	3516.2875391615	0
2	230818	3525.6861396563	1
2	230818	3525.6861396563	0
2	231543	3531.08081032574	1
2	231543	3531.08081032574	0
2	232584	3548.06522094982	1
2	232584	3548.06522094982	0
2	233200	3557.61204264234	1
2	233200	3557.61204264234	0
2	233400	3561.40681868509	1
2	233400	3561.40681868509	0
2	233668	3564.22909659867	1
2	233668	3564.22909659867	0
2	233983	3566.33359693077	1
2	233983	3566.33359693077	0
2	235030	3575.95730915349	1
2	235030	3575.95730915349	0
2	235238	3581.59177793042	1
2	235238	3581.59177793042	0
2	236318	3593.48956606641	1
2	236318	3593.48956606641	0
2	236786	3598.19309244594	1
2	236786	3598.19309244594	0
3	12128	89.31323357417	1.71213125533
3	12338	130.50970919832	1.71213218083
3	12732	185.43337427041	1.71213080967
3	13524	191.26969203655	1.71213044022
3	14232	197.69278916774	1.7121316056
3	14843	201.96476389964	1.71213025467
3	15200	203.69597275177	1.71213010379
3	15777	207.38255101633	1.71213061841
3	16176	209.33274192434	1.71213069056
3	16745	211.06782309088	1.71212974324
3	17664	216.10432731083	1.71212980429
3	17868	217.76868816687	1.71213033081
3	18529	221.9313483247	1.71213064138
3	19120	225.59165051841	3.70625367293
3	19549	228.74971465556	3.46513537928
3	20167	231.75836576104	1.71213040283
3	21536	239.3778352083	1.71212964413
3	22646	248.4256245079	1.71213118599
3	22938	251.76434453418	1.71213310512
3	23090	254.92458029917	1.71213070598
3	23265	258.78181514848	1.71213001971
3	24724	324.42088388719	1.71212967683
3	25087	364.89918693128	1.71213097086
3	25284	370.15643605188	4.69273544937
3	25645	375.12648785624	1.71213294422
3	27214	389.13146049028	1.71213025467
3	28452	400.06389296403	1.71213010313
3	28744	403.75091544005	3.71465458675
3	29277	408.01869491184	1.71212980429
3	30507	416.69175641142	1.71213005368
3	31849	423.27470586755	1.71213118599
3	32197	425.47438675566	1.71213097842
3	32512	433.22424853248	1.71213040283
3	33166	438.47626831402	1.71213011658
3	33763	443.94107674778	1.71213061841
3	34406	449.00893338502	1.71213070598
3	34885	450.93359041348	1.71212964413
3	35209	456.92667525101	1.71213162241
3	35505	460.7793534489	1.71213001971
3	36120	474.32130646897	1.71213060112
3	36679	485.01679322735	1.71213030102
3	37013	492.95177155232	1.71213041055
3	37430	546.15637374175	1.71213097086
3	38570	571.21008316839	1.71213138757
3	38815	574.96621290003	1.71213069056
3	39415	579.20982223909	1.71213064138
3	39595	582.95397781967	1.71213010313
3	40338	588.11872246728	1.71213104074
3	40595	590.72104654649	1.71212980429
3	40949	594.31439863826	1.71213005368
3	41793	601.1564716128	1.71213097842
3	42255	605.24643171806	1.71213025467
3	42615	607.93572391145	1.71213126083
3	42971	613.81922324682	1.71213123348
3	44067	625.60305843131	1.71213039265
3	44413	627.72679841874	1.71213040283
3	44922	635.24018442697	1.71213011658
3	45352	638.79954190106	1.71213061841
3	46371	644.43917784687	1.71213252371
3	47014	649.18661940574	1.71213084969
3	47491	651.03349789746	1.71213004284
3	47779	653.49674453111	1.71213045219
3	48301	662.66747543502	1.71213095795
3	48846	682.12507127139	1.71212964413
3	49436	709.53673558211	1.71212967683
3	49783	721.33583106518	1.71213030102
3	50439	739.00232050177	1.71213045115
3	51821	763.26431627564	1.71213044022
3	52546	770.46135078247	1.71213255768
3	54551	792.76116937549	1.71213033081
3	54744	795.72853450707	1.71213108066
3	54887	797.89769827625	1.71213025467
3	55234	804.1942881464	1.71213040283
3	55809	811.11578376569	1.71213011658
3	56483	820.59895853085	1.71213061841
3	57076	825.00546571751	1.71213118599
3	57227	828.74213946092	1.71213001971
3	57563	831.69341175466	1.71212980429
3	58103	839.65744008534	1.71213167222
3	58930	850.16914324531	1.71213095795
3	59085	853.5527455654	1.71212964413
3	60100	865.26490265879	1.71213084969
3	60432	869.45655543741	1.71213041055
3	60609	872.16045904257	1.71213004284
3	61302	890.25268418256	1.71213060112
3	61835	907.52330892404	1.71213280502
3	61988	917.26339395088	1.71213045115
3	62968	928.10004908031	1.71213010313
3	63376	947.05664076614	1.71212967683
3	63963	951.84271796267	1.71213005368
3	64302	954.00292671479	1.71213126083
3	64508	956.36959234249	1.71213074318
3	66112	969.42922720362	1.71213033081
3	66771	979.24199763642	1.71213123348
3	67241	983.25514435001	1.71213025467
3	67508	986.46463602727	1.71213026315
3	67951	995.43594573677	1.71213061841
3	68468	1002.59502459524	1.71213118599
3	68692	1005.33967085511	1.71213001971
3	69032	1010.90523952919	1.71212974324
3	69338	1016.91843134794	1.71213162241
3	69644	1026.69158373423	1.71213040283
3	69884	1028.60030224863	1.71213260779
3	70025	1030.78048394232	1.71212964413
3	70478	1033.90068869435	1.71213130675
3	71421	1044.4519333541	1.71213004284
3	71886	1055.22920052717	1.71213160698
3	72026	1057.46615758849	1.71212980429
3	72372	1061.71450413871	1.71213011658
3	73114	1070.56448095315	1.71213084969
3	73413	1075.8513333866	3.84343932358
3	73748	1082.49007008509	1.71213259563
3	74377	1105.19664187806	1.71213045115
3	74567	1109.5013002343	1.71213010313
3	74903	1115.4738445665	1.71213030102
3	75153	1119.11758157272	1.71212967683
3	75601	1125.76316401537	1.71213131862
3	76424	1136.10951200095	1.71213179991
3	76817	1139.88254997046	1.71213045219
3	77503	1148.23273362429	1.71213108066
3	77789	1150.13051147863	1.71213294422
3	78423	1156.06532166409	1.71213005368
3	78601	1158.06316999962	1.71213070598
3	78819	1163.16539421387	1.71213061383
3	79080	1166.36813463792	1.71213140598
3	79566	1172.5429552084	1.71213064138
3	79968	1175.1877173837	1.71213061841
3	80461	1183.3679033232	1.71213025467
3	80742	1185.54970419266	1.71213033081
3	81097	1188.44373232127	1.71213166407
3	81485	1198.68379843916	1.71213040283
3	81821	1203.1167871925	1.71212964413
3	82483	1215.80308999344	1.71213026315
3	82780	1219.81989197311	1.71213074919
3	82881	1221.4910033117	1.71213097842
3	83900	1233.60167346514	1.71213011658
3	84205	1239.23821590827	1.71213167222
3	84464	1243.92975151227	1.71213218002
3	85171	1256.23830280044	1.71213084969
3	86047	1278.69827847692	1.71213291455
3	86926	1298.44813627147	1.71213131862
3	88013	1311.803055208	1.71213074318
3	88336	1314.96224840121	1.71213045219
3	88510	1319.86054289077	1.71213069056
3	88809	1325.26078812434	1.71213108066
3	89228	1336.05645761408	1.71213061383
3	89415	1340.38246512837	3.3420265416
3	89661	1342.10724209902	1.71213097086
3	89994	1344.61421865823	1.71213064138
3	91781	1363.36358077833	1.71213179991
3	92240	1367.46080884722	1.71213039265
3	92694	1379.23411663975	1.71213033081
3	93183	1383.92497636888	1.71213010379
3	93519	1387.00909429018	1.71213005368
3	94389	1395.41235325719	1.71212964413
3	94738	1407.3142399451	1.71213375933
3	94874	1411.0072749801	1.71212974324
3	95059	1413.02347233906	1.71213025467
3	95438	1422.99748485255	1.71213130675
3	95773	1425.3237653496	1.71213177967
3	96086	1430.56153151296	1.71213011658
3	96261	1433.31023769859	1.71213004284
3	96842	1448.55964368969	1.71213001971
3	97904	1467.97520703203	1.71213041055
3	98273	1474.8960479375	1.71213131862
3	98535	1477.71234633963	1.71213218002
3	98879	1481.35485731366	3.35703206807
3	99673	1492.48461025992	1.71213126083
3	100323	1502.32675607317	1.71213045115
3	100893	1510.24075757545	1.71212967683
3	101080	1515.18144033121	1.71212980429
3	102616	1530.54575769295	1.71213311783
3	103393	1540.13319582036	1.71213039265
3	103857	1545.08566017974	1.71213108066
3	104429	1549.08726781107	1.71213156586
3	104622	1553.58699820169	1.71213179991
3	105122	1563.10217204827	1.71213033081
3	105462	1568.46022816265	1.71213010379
3	106620	1584.51751648829	1.71213080967
3	108256	1619.73534759184	1.71212964413
3	108478	1624.96097200769	1.71213095795
3	109486	1650.78444344155	1.71213254684
3	109943	1653.62994233324	1.71213041055
3	110878	1663.08270140699	1.71213010313
3	111164	1668.80468144499	1.71213060112
3	111714	1682.37570841464	1.71213045115
3	112321	1686.76707906302	3.35153048136
3	112468	1688.71994817971	1.71212967683
3	112727	1691.00081677811	1.71212980429
3	114300	1721.37627767493	1.71213112106
3	114640	1725.59530833203	1.71213108066
3	114900	1728.24923969754	1.71942926031
3	115609	1737.43920549658	1.71213005368
3	116184	1748.01447768481	1.71213070598
3	116543	1753.07712183654	1.71213010379
3	117933	1764.1697919494	1.71213061841
3	118331	1776.80963231134	1.71213368999
3	118519	1783.99109410496	6.85986380881
3	118847	1787.52849522094	1.7121331362
3	119757	1793.29380147195	2.06106989019
3	120485	1804.45031201203	1.71213025467
3	120673	1811.04018536879	1.71213044022
3	121592	1839.16616202471	1.71213041055
3	122171	1844.17657836343	1.71213011658
3	122835	1848.38027926306	1.71213045219
3	123177	1857.46152285724	1.71213045115
3	124300	1866.88017467165	1.71213004284
3	124496	1872.47277260709	1.71212967683
3	124709	1875.44244359539	1.71213211293
3	125160	1878.42253123085	1.71212980429
3	125393	1886.66729730476	1.7121316056
3	127110	1912.59983133768	1.71213030102
3	127372	1917.04034194381	1.71213005368
3	127576	1919.67186095942	1.71213112106
3	128555	1933.95487790059	1.71213010379
3	128734	1935.77150483656	1.71213080967
3	129230	1943.59816616528	1.71213061841
3	129559	1947.45459199516	1.71213040283
3	130250	1955.49619387098	1.71213118599
3	131051	1968.50200828249	1.71212974324
3	131283	1973.25225039291	1.7121332335
3	131543	1978.43655891177	2.64564326726
3	131837	1981.22116697017	1.71213025467
3	132142	1984.99040787361	1.71213116373
3	132602	1998.57410553884	1.71213039265
3	132900	2001.47066414578	1.71213125533
3	133125	2010.79078799721	1.71213044022
3	134165	2022.54054520896	1.71213260713
3	134480	2029.38840021926	1.71213011658
3	134732	2032.71200646797	1.71213001971
3	135186	2038.85728922979	1.71213060112
3	135488	2042.01766284672	1.71213004284
3	135757	2044.96525061655	1.71212967683
3	136023	2049.91353431636	1.71213041055
3	136516	2059.96928090417	1.71212964413
3	137369	2077.91245046933	1.7121322788
3	137858	2085.2341928289	1.71212980429
3	138445	2093.37567209114	1.71213005368
3	138893	2097.64119639598	1.71213211293
3	139075	2100.18316037873	1.71213112106
3	139711	2109.47588966544	1.71213104074
3	140061	2116.40587455048	1.71213080967
3	140827	2125.02315219918	1.71213108066
3	141541	2139.9517012104	1.71213069056
3	141944	2143.82368822596	1.71213311783
3	142414	2147.26066298903	1.71213061841
3	142761	2152.78023435959	1.71213030102
3	143645	2169.75230754625	1.71213025467
3	144136	2174.10024381599	1.71213039265
3	144684	2180.0681951109	3.25954155995
3	144927	2183.89849015993	1.71213033081
3	145088	2190.26816984786	1.71213026315
3	145440	2193.32261175664	1.71213010379
3	145625	2197.85641193442	1.71213010313
3	146206	2201.68021412039	1.71213095795
3	146837	2206.21264342572	1.71213001971
3	147262	2214.49239817229	1.71213004284
3	147945	2224.13415107106	1.71212967683
3	148369	2238.78689838507	1.71213045115
3	149000	2254.52178717435	1.71213130675
3	149463	2260.96988902869	1.71212964413
3	149715	2264.06240042129	1.71213314538
3	150648	2281.65940395234	1.71212980429
3	150947	2283.81861416148	1.71213156586
3	151189	2289.73380436201	1.71213104074
3	151366	2293.06943841605	1.71213070598
3	152123	2303.84431201126	1.71213060112
3	152704	2307.6885097351	2.11600894947
3	152897	2317.36411151163	1.71213118599
3	153130	2321.05068902281	1.71213005368
3	153487	2323.11083824627	1.71213061383
3	154066	2329.05290184062	1.71213074318
3	154257	2331.40876077332	1.71213245163
3	155077	2340.48020182415	1.71213061841
3	155419	2345.73750226773	1.71213045219
3	155754	2351.92811308766	1.71213084969
3	156156	2359.67418851357	1.71212974324
3	156601	2368.03705399824	1.71213010379
3	156948	2369.88822280037	1.71213125533
3	157196	2373.1312391021	1.71213010313
3	157605	2379.42236262406	1.71213001971
3	158637	2388.75346989327	1.71213275867
3	160082	2407.81859156992	1.71212967683
3	160936	2427.99274872642	1.71213045115
3	161266	2432.52283674814	1.71213026315
3	162462	2458.93161253575	1.71213211293
3	162603	2461.85181398378	1.71212980429
3	163293	2475.90857706635	1.71213060112
3	164436	2492.8268795306	1.71213112106
3	165075	2498.82065651894	1.71213097086
3	165512	2504.7900933383	1.71213118599
3	165884	2512.79269904224	1.71213280502
3	167557	2547.02050249979	1.71213040283
3	167914	2550.97207329878	1.71213010313
3	168523	2556.78827548964	3.90583708668
3	168595	2557.45650715284	1.71213084969
3	168802	2559.23862348922	1.71213108066
3	169603	2568.33907113154	1.71213004284
3	169976	2571.08338167874	1.71213131862
3	170605	2578.02739265345	1.71213039265
3	170794	2581.80452522141	1.71212967683
3	171298	2584.48314603904	1.71213126083
3	171951	2596.83434255391	1.71213011658
3	172326	2600.97814630127	2.31486068832
3	172460	2602.52890207	1.71212974324
3	172687	2605.49132205117	1.71213116373
3	173016	2615.93029935718	1.71213064138
3	173175	2626.00749122836	1.71213026315
3	173706	2631.88548948617	1.71213130675
3	174238	2641.5598474911	1.71213291455
3	175099	2664.98217623458	1.71212980429
3	175360	2667.14304447795	1.71213070598
3	175536	2670.00566506763	1.71212964413
3	176080	2678.11406403003	1.71213160698
3	176552	2683.9562282958	1.71213005368
3	177309	2695.68948391182	1.71213097086
3	177861	2701.9674862288	1.71213069056
3	178540	2722.51603863297	1.71213030102
3	178898	2725.38994850019	2.17468855933
3	179126	2729.99307489298	1.71213001971
3	179391	2738.18526282676	1.71213040283
3	180238	2746.93402332489	1.71213033081
3	181369	2752.78504803728	1.71213010379
3	181572	2755.09918971482	1.71213074318
3	182183	2761.6313210124	1.71213218083
3	182416	2767.68427137885	1.71213025467
3	182752	2773.34103498723	1.71213044022
3	183011	2776.84868069936	1.71213039265
3	183358	2779.31929416605	1.71213045115
3	184651	2791.63053950211	1.71212974324
3	184951	2796.97139968564	1.71213064138
3	185185	2799.34771177271	1.71213011658
3	185480	2804.05022440265	1.7121322788
3	186215	2820.80901667993	1.71213097842
3	186602	2837.25182383319	1.71212980429
3	187559	2854.80838517158	1.71213207738
3	187776	2858.77621544776	1.71212964413
3	188129	2862.16623597849	1.71213005368
3	188694	2874.9811681791	1.71213069056
3	189418	2883.29910842909	1.71213311783
3	190074	2887.87885949734	1.71213074919
3	190324	2897.43082193396	1.71213045219
3	191395	2916.63646701599	1.71213010313
3	191680	2919.56632150045	1.71213125533
3	193516	2936.25969945012	1.71213004284
3	193803	2940.01971796502	1.71213010379
3	194001	2944.22304020829	1.71213074318
3	194148	2948.72867621818	1.71213044022
3	195299	2970.86992777492	1.71212974324
3	195565	2974.60405994727	1.71213025467
3	196151	2980.13047381546	1.71213030102
3	196950	2985.77633912694	1.71213039265
3	197147	2989.50481410945	1.71213026315
3	197661	2994.34338501136	1.71213080967
3	197842	3002.40645305593	1.71213084969
3	198714	3026.32033338672	1.71213262058
3	199165	3030.32197231129	1.71212964413
3	199590	3037.80077945198	1.71213041055
3	199962	3040.79231267382	1.71213218002
3	200392	3045.86173826296	1.71213112106
3	200539	3053.02667012646	1.71212980429
3	200958	3056.46950559378	1.71213070598
3	202505	3070.38047637506	1.71213045219
3	202866	3093.42374336909	1.71213095795
3	203209	3097.7336779973	1.71213118599
3	203540	3102.05377001916	1.71213097086
3	204074	3109.12700254884	1.71213264985
3	204265	3115.37868116276	5.88165105658
3	204868	3123.72039220681	1.71213001971
3	205056	3133.45948562984	1.71213044022
3	206204	3143.31898829923	1.71212967683
3	206389	3145.34956853399	1.71212974324
3	207118	3156.80761738545	1.71213283481
3	207758	3164.37525062304	1.71213061841
3	207922	3176.31377838306	1.71213039265
3	208342	3181.69217349762	1.71213025467
3	208950	3185.58916244188	1.71213097842
3	209331	3187.70267913137	1.71213026315
3	209766	3192.51093188986	1.71213040283
3	210144	3202.10860124105	1.71213167222
3	210601	3209.43044199674	1.71213004284
3	211641	3215.22874085976	1.71212964413
3	212244	3233.27769092403	1.71213069056
3	212696	3236.60121273358	2.65969915901
3	213380	3243.60885731775	4.43404719646
3	213463	3244.42588634071	3.40881590937
3	213621	3246.9991386815	1.71213045219
3	214461	3254.59563299345	1.71213140598
3	215117	3269.82997772328	1.71213131862
3	216126	3290.51120983195	1.71213430391
3	216308	3294.28704552526	1.71213074318
3	217609	3321.67778100648	1.71213010313
3	217859	3331.14335598199	1.71212967683
3	218262	3333.39316757409	1.71212974324
3	218656	3339.30128567353	1.7121332335
3	218823	3342.10288506272	1.71213064138
3	219241	3350.05472446307	1.71213123348
3	219514	3353.64850193053	2.12320618495
3	219817	3361.19161841916	1.71213001971
3	220236	3365.73203387883	1.71213026315
3	220773	3372.33052872837	1.71213097842
3	221007	3374.05363117746	1.71213061841
3	221256	3376.05908089883	1.71213040283
3	221979	3378.82655130803	1.71213025467
3	222346	3383.10358109612	1.71213045115
3	223230	3397.88603352903	1.71213004284
3	223895	3404.37446547368	1.71213041055
3	224228	3413.63472182857	1.71213381075
3	224459	3416.69389557965	1.71213005368
3	224936	3419.48885037708	1.71212964413
3	226385	3453.00127351863	1.71213140598
3	227024	3457.51640353847	1.71213095795
3	227217	3460.0608610351	1.71213259563
3	227485	3464.38610653564	1.71213118599
3	227953	3472.56019464062	1.71213011658
3	228243	3474.99023501215	2.41701466572
3	228664	3493.89154755565	1.71213074919
3	229225	3504.9389681897	1.71213033081
3	229553	3507.04177035527	1.71213010313
3	229914	3510.81654503031	1.71213060112
3	230272	3516.2875391615	3.94642809164
3	230818	3525.6861396563	1.71213010379
3	231543	3531.08081032574	1.71212967683
3	232584	3548.06522094982	1.71213280502
3	233200	3557.61204264234	1.71213039265
3	233668	3564.22909659867	1.71213061841
3	233983	3566.33359693077	1.71212974324
3	235030	3575.95730915349	1.71213001971
3	235238	3581.59177793042	1.71213040283
3	236318	3593.48956606641	1.71213288776
3	236786	3598.19309244594	1.71213025467
4	12128	89.31323357417	1.71213125533
4	12338	130.50970919832	1.71213218083
4	12732	185.43337427041	1.71213080967
4	13524	191.26969203655	1.71213044022
4	14232	197.69278916774	1.7121316056
4	14843	201.96476389964	1.71213025467
4	15200	203.69597275177	1.71213010379
4	15777	207.38255101633	1.71213061841
4	16176	209.33274192434	1.71213069056
4	16745	211.06782309088	1.71212974324
4	17664	216.10432731083	1.71212980429
4	17868	217.76868816687	1.71213033081
4	18529	221.9313483247	1.71213064138
4	19120	225.59165051841	3.70625367293
4	19549	228.74971465556	3.46513537928
4	20167	231.75836576104	1.71213040283
4	21536	239.3778352083	1.71212964413
4	22646	248.4256245079	1.71213118599
4	22938	251.76434453418	1.71213310512
4	23090	254.92458029917	1.71213070598
4	23265	258.78181514848	1.71213001971
4	24724	324.42088388719	1.71212967683
4	25087	364.89918693128	1.71213097086
4	25284	370.15643605188	4.69273544937
4	25645	375.12648785624	1.71213294422
4	27214	389.13146049028	1.71213025467
4	28452	400.06389296403	1.71213010313
4	28744	403.75091544005	3.71465458675
4	29277	408.01869491184	1.71212980429
4	30507	416.69175641142	1.71213005368
4	31849	423.27470586755	1.71213118599
4	32197	425.47438675566	1.71213097842
4	32512	433.22424853248	1.71213040283
4	33166	438.47626831402	1.71213011658
4	33763	443.94107674778	1.71213061841
4	34406	449.00893338502	1.71213070598
4	34885	450.93359041348	1.71212964413
4	35209	456.92667525101	1.71213162241
4	35505	460.7793534489	1.71213001971
4	36120	474.32130646897	1.71213060112
4	36679	485.01679322735	1.71213030102
4	37013	492.95177155232	1.71213041055
4	37430	546.15637374175	1.71213097086
4	38570	571.21008316839	1.71213138757
4	38815	574.96621290003	1.71213069056
4	39415	579.20982223909	1.71213064138
4	39595	582.95397781967	1.71213010313
4	40338	588.11872246728	1.71213104074
4	40595	590.72104654649	1.71212980429
4	40949	594.31439863826	1.71213005368
4	41793	601.1564716128	1.71213097842
4	42255	605.24643171806	1.71213025467
4	42615	607.93572391145	1.71213126083
4	42971	613.81922324682	1.71213123348
4	44067	625.60305843131	1.71213039265
4	44413	627.72679841874	1.71213040283
4	44922	635.24018442697	1.71213011658
4	45352	638.79954190106	1.71213061841
4	46371	644.43917784687	1.71213252371
4	47014	649.18661940574	1.71213084969
4	47491	651.03349789746	1.71213004284
4	47779	653.49674453111	1.71213045219
4	48301	662.66747543502	1.71213095795
4	48846	682.12507127139	1.71212964413
4	49436	709.53673558211	1.71212967683
4	49783	721.33583106518	1.71213030102
4	50439	739.00232050177	1.71213045115
4	51821	763.26431627564	1.71213044022
4	52546	770.46135078247	1.71213255768
4	54551	792.76116937549	1.71213033081
4	54744	795.72853450707	1.71213108066
4	54887	797.89769827625	1.71213025467
4	55234	804.1942881464	1.71213040283
4	55809	811.11578376569	1.71213011658
4	56483	820.59895853085	1.71213061841
4	57076	825.00546571751	1.71213118599
4	57227	828.74213946092	1.71213001971
4	57563	831.69341175466	1.71212980429
4	58103	839.65744008534	1.71213167222
4	58930	850.16914324531	1.71213095795
4	59085	853.5527455654	1.71212964413
4	60100	865.26490265879	1.71213084969
4	60432	869.45655543741	1.71213041055
4	60609	872.16045904257	1.71213004284
4	61302	890.25268418256	1.71213060112
4	61835	907.52330892404	1.71213280502
4	61988	917.26339395088	1.71213045115
4	62968	928.10004908031	1.71213010313
4	63376	947.05664076614	1.71212967683
4	63963	951.84271796267	1.71213005368
4	64302	954.00292671479	1.71213126083
4	64508	956.36959234249	1.71213074318
4	66112	969.42922720362	1.71213033081
4	66771	979.24199763642	1.71213123348
4	67241	983.25514435001	1.71213025467
4	67508	986.46463602727	1.71213026315
4	67951	995.43594573677	1.71213061841
4	68468	1002.59502459524	1.71213118599
4	68692	1005.33967085511	1.71213001971
4	69032	1010.90523952919	1.71212974324
4	69338	1016.91843134794	1.71213162241
4	69644	1026.69158373423	1.71213040283
4	69884	1028.60030224863	1.71213260779
4	70025	1030.78048394232	1.71212964413
4	70478	1033.90068869435	1.71213130675
4	71421	1044.4519333541	1.71213004284
4	71886	1055.22920052717	1.71213160698
4	72026	1057.46615758849	1.71212980429
4	72372	1061.71450413871	1.71213011658
4	73114	1070.56448095315	1.71213084969
4	73413	1075.8513333866	3.84343932358
4	73748	1082.49007008509	1.71213259563
4	74377	1105.19664187806	1.71213045115
4	74567	1109.5013002343	1.71213010313
4	74903	1115.4738445665	1.71213030102
4	75153	1119.11758157272	1.71212967683
4	75601	1125.76316401537	1.71213131862
4	76424	1136.10951200095	1.71213179991
4	76817	1139.88254997046	1.71213045219
4	77503	1148.23273362429	1.71213108066
4	77789	1150.13051147863	1.71213294422
4	78423	1156.06532166409	1.71213005368
4	78601	1158.06316999962	1.71213070598
4	78819	1163.16539421387	1.71213061383
4	79080	1166.36813463792	1.71213140598
4	79566	1172.5429552084	1.71213064138
4	79968	1175.1877173837	1.71213061841
4	80461	1183.3679033232	1.71213025467
4	80742	1185.54970419266	1.71213033081
4	81097	1188.44373232127	1.71213166407
4	81485	1198.68379843916	1.71213040283
4	81821	1203.1167871925	1.71212964413
4	82483	1215.80308999344	1.71213026315
4	82780	1219.81989197311	1.71213074919
4	82881	1221.4910033117	1.71213097842
4	83900	1233.60167346514	1.71213011658
4	84205	1239.23821590827	1.71213167222
4	84464	1243.92975151227	1.71213218002
4	85171	1256.23830280044	1.71213084969
4	86047	1278.69827847692	1.71213291455
4	86926	1298.44813627147	1.71213131862
4	88013	1311.803055208	1.71213074318
4	88336	1314.96224840121	1.71213045219
4	88510	1319.86054289077	1.71213069056
4	88809	1325.26078812434	1.71213108066
4	89228	1336.05645761408	1.71213061383
4	89415	1340.38246512837	3.3420265416
4	89661	1342.10724209902	1.71213097086
4	89994	1344.61421865823	1.71213064138
4	91781	1363.36358077833	1.71213179991
4	92240	1367.46080884722	1.71213039265
4	92694	1379.23411663975	1.71213033081
4	93183	1383.92497636888	1.71213010379
4	93519	1387.00909429018	1.71213005368
4	94389	1395.41235325719	1.71212964413
4	94738	1407.3142399451	1.71213375933
4	94874	1411.0072749801	1.71212974324
4	95059	1413.02347233906	1.71213025467
4	95438	1422.99748485255	1.71213130675
4	95773	1425.3237653496	1.71213177967
4	96086	1430.56153151296	1.71213011658
4	96261	1433.31023769859	1.71213004284
4	96842	1448.55964368969	1.71213001971
4	97904	1467.97520703203	1.71213041055
4	98273	1474.8960479375	1.71213131862
4	98535	1477.71234633963	1.71213218002
4	98879	1481.35485731366	3.35703206807
4	99673	1492.48461025992	1.71213126083
4	100323	1502.32675607317	1.71213045115
4	100893	1510.24075757545	1.71212967683
4	101080	1515.18144033121	1.71212980429
4	102616	1530.54575769295	1.71213311783
4	103393	1540.13319582036	1.71213039265
4	103857	1545.08566017974	1.71213108066
4	104429	1549.08726781107	1.71213156586
4	104622	1553.58699820169	1.71213179991
4	105122	1563.10217204827	1.71213033081
4	105462	1568.46022816265	1.71213010379
4	106620	1584.51751648829	1.71213080967
4	108256	1619.73534759184	1.71212964413
4	108478	1624.96097200769	1.71213095795
4	109486	1650.78444344155	1.71213254684
4	109943	1653.62994233324	1.71213041055
4	110878	1663.08270140699	1.71213010313
4	111164	1668.80468144499	1.71213060112
4	111714	1682.37570841464	1.71213045115
4	112321	1686.76707906302	3.35153048136
4	112468	1688.71994817971	1.71212967683
4	112727	1691.00081677811	1.71212980429
4	114300	1721.37627767493	1.71213112106
4	114640	1725.59530833203	1.71213108066
4	114900	1728.24923969754	1.71942926031
4	115609	1737.43920549658	1.71213005368
4	116184	1748.01447768481	1.71213070598
4	116543	1753.07712183654	1.71213010379
4	117933	1764.1697919494	1.71213061841
4	118331	1776.80963231134	1.71213368999
4	118519	1783.99109410496	6.85986380881
4	118847	1787.52849522094	1.7121331362
4	119757	1793.29380147195	2.06106989019
4	120485	1804.45031201203	1.71213025467
4	120673	1811.04018536879	1.71213044022
4	121592	1839.16616202471	1.71213041055
4	122171	1844.17657836343	1.71213011658
4	122835	1848.38027926306	1.71213045219
4	123177	1857.46152285724	1.71213045115
4	124300	1866.88017467165	1.71213004284
4	124496	1872.47277260709	1.71212967683
4	124709	1875.44244359539	1.71213211293
4	125160	1878.42253123085	1.71212980429
4	125393	1886.66729730476	1.7121316056
4	127110	1912.59983133768	1.71213030102
4	127372	1917.04034194381	1.71213005368
4	127576	1919.67186095942	1.71213112106
4	128555	1933.95487790059	1.71213010379
4	128734	1935.77150483656	1.71213080967
4	129230	1943.59816616528	1.71213061841
4	129559	1947.45459199516	1.71213040283
4	130250	1955.49619387098	1.71213118599
4	131051	1968.50200828249	1.71212974324
4	131283	1973.25225039291	1.7121332335
4	131543	1978.43655891177	2.64564326726
4	131837	1981.22116697017	1.71213025467
4	132142	1984.99040787361	1.71213116373
4	132602	1998.57410553884	1.71213039265
4	132900	2001.47066414578	1.71213125533
4	133125	2010.79078799721	1.71213044022
4	134165	2022.54054520896	1.71213260713
4	134480	2029.38840021926	1.71213011658
4	134732	2032.71200646797	1.71213001971
4	135186	2038.85728922979	1.71213060112
4	135488	2042.01766284672	1.71213004284
4	135757	2044.96525061655	1.71212967683
4	136023	2049.91353431636	1.71213041055
4	136516	2059.96928090417	1.71212964413
4	137369	2077.91245046933	1.7121322788
4	137858	2085.2341928289	1.71212980429
4	138445	2093.37567209114	1.71213005368
4	138893	2097.64119639598	1.71213211293
4	139075	2100.18316037873	1.71213112106
4	139711	2109.47588966544	1.71213104074
4	140061	2116.40587455048	1.71213080967
4	140827	2125.02315219918	1.71213108066
4	141541	2139.9517012104	1.71213069056
4	141944	2143.82368822596	1.71213311783
4	142414	2147.26066298903	1.71213061841
4	142761	2152.78023435959	1.71213030102
4	143645	2169.75230754625	1.71213025467
4	144136	2174.10024381599	1.71213039265
4	144684	2180.0681951109	3.25954155995
4	144927	2183.89849015993	1.71213033081
4	145088	2190.26816984786	1.71213026315
4	145440	2193.32261175664	1.71213010379
4	145625	2197.85641193442	1.71213010313
4	146206	2201.68021412039	1.71213095795
4	146837	2206.21264342572	1.71213001971
4	147262	2214.49239817229	1.71213004284
4	147945	2224.13415107106	1.71212967683
4	148369	2238.78689838507	1.71213045115
4	149000	2254.52178717435	1.71213130675
4	149463	2260.96988902869	1.71212964413
4	149715	2264.06240042129	1.71213314538
4	150648	2281.65940395234	1.71212980429
4	150947	2283.81861416148	1.71213156586
4	151189	2289.73380436201	1.71213104074
4	151366	2293.06943841605	1.71213070598
4	152123	2303.84431201126	1.71213060112
4	152704	2307.6885097351	2.11600894947
4	152897	2317.36411151163	1.71213118599
4	153130	2321.05068902281	1.71213005368
4	153487	2323.11083824627	1.71213061383
4	154066	2329.05290184062	1.71213074318
4	154257	2331.40876077332	1.71213245163
4	155077	2340.48020182415	1.71213061841
4	155419	2345.73750226773	1.71213045219
4	155754	2351.92811308766	1.71213084969
4	156156	2359.67418851357	1.71212974324
4	156601	2368.03705399824	1.71213010379
4	156948	2369.88822280037	1.71213125533
4	157196	2373.1312391021	1.71213010313
4	157605	2379.42236262406	1.71213001971
4	158637	2388.75346989327	1.71213275867
4	160082	2407.81859156992	1.71212967683
4	160936	2427.99274872642	1.71213045115
4	161266	2432.52283674814	1.71213026315
4	162462	2458.93161253575	1.71213211293
4	162603	2461.85181398378	1.71212980429
4	163293	2475.90857706635	1.71213060112
4	164436	2492.8268795306	1.71213112106
4	165075	2498.82065651894	1.71213097086
4	165512	2504.7900933383	1.71213118599
4	165884	2512.79269904224	1.71213280502
4	167557	2547.02050249979	1.71213040283
4	167914	2550.97207329878	1.71213010313
4	168523	2556.78827548964	3.90583708668
4	168595	2557.45650715284	1.71213084969
4	168802	2559.23862348922	1.71213108066
4	169603	2568.33907113154	1.71213004284
4	169976	2571.08338167874	1.71213131862
4	170605	2578.02739265345	1.71213039265
4	170794	2581.80452522141	1.71212967683
4	171298	2584.48314603904	1.71213126083
[...]
55	164262	2491.11474840954	517.84950514766
55	175583	2670.42227005173	314.08119100666
55	188330	2872.90215624414	800.10826741025
55	200212	3044.1496071419	1977.0921719207
55	211936	3218.62472899535	174.14620470177
55	224488	3416.9012214214	306.93023399852
55	236064	3592.48553816681	77.294150519725
56	20522	233.73222533579	352.80557265536
56	33202	438.7670402084	50.214678891375
56	47119	649.31991956287	187.84010849256
56	60980	887.21751222397	783.48875012966
56	75278	1124.05103269675	287.0504394448
56	86530	1296.73600495285	939.68251679856
56	98105	1473.18391661888	405.02961291632
56	109129	1647.55836661267	470.42303782825
56	123843	1863.03290001965	150.06853034492
56	135195	2039.57683241829	1627.3165277381
56	147311	2216.96926010995	35.88976706949
56	159038	2391.41018466958	438.71339062158
56	169727	2569.37125036012	637.81956879954
56	180003	2746.33674035454	2596.2620951782
56	192082	2922.38701304038	503.8779452068
56	202877	3093.80417143625	351.02271462676
56	214948	3268.11784640466	143.19822003848
56	228494	3493.29888058625	757.93284019709
57	20688	234.93301418418	513.39215194261
57	31937	423.76225577724	94.135845258379
57	41384	599.44434063438	242.41442268931
57	53036	776.43811511682	284.61967867884
57	65956	968.78216297724	720.65267854451
57	82608	1219.77887233328	2020.1185801296
57	96963	1450.25934254084	718.29617698131
57	110727	1662.35248984856	586.72449793558
57	122290	1845.39448639076	207.65880682405
57	133643	2018.2248605899	661.97236372236
57	146299	2202.8209812576	291.2988430902
57	159944	2407.2328204441	641.60715700812
57	171657	2593.89021510403	976.66572583414
57	185965	2819.09688570151	345.88599055748
57	197950	3003.50924593368	1173.0604619305
57	208545	3183.87703146346	542.92649355145
57	220522	3370.61839774995	98.371043650493
57	236650	3597.59445030566	461.33516541862
58	20850	235.96424324419	360.04844482334
58	32791	436.76413819744	1050.3139800367
58	44551	633.52805431039	71.324188859754
58	55588	809.40365364911	834.23578036755
58	72228	1060.00237402213	252.80291259051
58	83679	1231.88954334856	1997.0287379545
58	95941	1428.84940139638	717.62567562508
58	110315	1659.20033724535	675.68076707339
58	121872	1842.46444824685	1190.6909419566
58	134339	2027.67627010268	335.26835892675
58	148482	2240.07018603549	42.677939435408
58	160365	2411.34020334328	2.1045074962323
58	171735	2595.12221243733	260.96417986775
58	184964	2797.63558165613	920.45747683585
58	198511	3024.60820076614	1186.7105925659
58	212364	3233.94151357457	835.40980991648
58	227736	3470.84806452404	794.29582155657
59	20928	235.97821353229	243.11416367261
59	30770	417.87620023365	103.63480988612
59	46701	647.47448855605	428.72964562073
59	59950	863.5527718091	518.90009367374
59	72809	1068.85235010346	224.55194247242
59	84944	1254.52617195075	185.76782768794
59	96314	1438.9664881068	15.668717094561
59	107477	1613.81001876456	377.9930726863
59	118851	1788.10333413519	77.548999569137
59	132729	2000.7215504002	487.67071496547
59	143926	2172.9023822462	1184.3433370715
59	155606	2350.21598223797	164.46400732026
59	168365	2555.74437630315	1075.5280438679
59	184518	2790.22300169697	285.07036120714
59	197696	3000.69432220624	1114.0729017398
59	208465	3183.49128773738	33.12091784064
59	223097	3397.1690930977	433.21568673778
59	235675	3590.25052440859	323.25261358164
60	21090	237.66570556417	452.5362583798
60	34440	449.22146076935	755.89405018665
60	48481	680.41294162726	529.7105619206
60	58946	851.84061592127	163.81989170345
60	69887	1029.06835429819	391.80208440836
60	81529	1201.40465754837	579.37205543951
60	93874	1393.70022361306	1288.785386303
60	108038	1618.02321794771	719.31025418333
60	119344	1791.23273158176	651.05325556396
60	136383	2058.25715126004	205.65521553613
60	149328	2259.25775938456	52.609446260774
60	161947	2450.20669564292	22.359846726022
60	175397	2668.2935354235	1142.8826657836
60	187642	2857.06408580363	1123.6032520385
60	198951	3028.60984266716	383.34624177353
60	211044	3213.51661121563	1169.7629346581
60	224646	3417.77672073295	310.06909030916
61	21322	238.62649540697	170.71611608105
61	30613	417.16063575011	202.43395214698
61	41058	594.94706967631	332.1284349164
61	52625	771.0202698317	1658.3335265022
61	64328	954.65746159931	1730.8270636064
61	75854	1130.09117419791	160.62607749304
61	87614	1310.09092446482	204.35394288295
61	101599	1523.33068230735	586.77720576887
61	118333	1777.13123029615	443.10889751906
61	130426	1961.54791360986	33.497594536261
61	141948	2144.05008044899	6.9924333314238
61	153820	2327.34077109744	193.9350337642
61	168280	2554.70196720574	883.80004298606
61	181394	2753.38705897164	661.25063273768
61	193833	2942.51090946511	285.55602029932
61	204499	3120.45273542839	3686.4450038707
61	216139	3292.57491478208	222.30940608596
61	227988	3472.57322034643	91.54065187876
62	21405	239.10897038259	38.810175234919
62	33608	442.78625739138	3.8999976091639
62	43702	623.89092803866	3862.1573974133
62	55668	810.38219584122	1045.1223397978
62	68553	1003.70766564538	762.14603341261
62	80582	1184.34454595845	1305.2331392245
62	91948	1365.74867845457	968.67778030328
62	103181	1538.42106542771	267.17671271611
62	115653	1742.94323650368	119.92183147348
62	132473	1996.86197514619	329.71582925245
62	143847	2172.38811342334	131.49524630693
62	159478	2403.46382030893	881.1254146764
62	170468	2576.3152622608	1809.697618574
62	182801	2775.13655030671	1023.3945361715
62	196735	2984.06420873429	466.36228967149
62	207793	3174.60164799041	616.6016560358
62	221845	3378.52919886399	130.50175874618
62	232991	3555.89991224969	465.03865090752
63	21662	240.39222314375	1011.9399906738
63	31267	420.04824308886	1554.0127909053
63	43147	616.21953798609	79.916957898018
63	55928	812.58543308874	122.59007408868
63	67975	995.77089274023	555.11483594308
63	79170	1170.74579959668	473.45230439879
63	90171	1346.96367076501	482.92994705413
63	102944	1536.26713095434	1760.5489870152
63	114726	1727.91697754546	1259.5483966438
63	128080	1928.08342363135	855.90533422573
63	139743	2109.89628208801	859.05958379728
63	151409	2297.18783516193	154.9718502161
63	164102	2488.45353233024	412.70018845834
63	184194	2786.98051149641	1248.9656713141
63	196340	2981.59441432569	1169.8511732904
63	206840	3156.50535747983	583.49364393868
63	218131	3332.48897010066	518.79833512311
63	232680	3552.78721589807	1171.0227309612
64	21740	240.46002522462	90.902857109389
64	32950	437.75509701325	261.66378754406
64	47978	659.30677192322	50.903121471676
64	57769	835.55247430767	4.1745542390219
64	70646	1036.05035320512	19.611849140816
64	85213	1263.70895197617	24.464603338053
64	96470	1443.46109359882	47.438928120485
64	109646	1651.93610380694	659.81078962185
64	123370	1859.36419748467	791.44092114422
64	140167	2120.9280514392	293.68600037424
64	154076	2329.69662832169	399.66283121141
64	166282	2517.01058877505	130.8499297619
64	178069	2709.62653760455	913.41817811285
64	189421	2883.89632748362	1315.936324376
64	201553	3060.75035867682	595.1330723621
64	213203	3242.50081011766	217.6291396673
64	224311	3415.47407226066	706.97790259148
64	235909	3591.94441373302	100.69874831892
65	21818	240.49541811113	140.45119338621
65	32712	436.57544031944	554.98242008017
65	46779	647.52542407462	2986.9880161748
65	59372	857.71330951771	403.31286552384
65	71715	1053.51706892019	797.25925219321
65	86059	1285.12788747977	221.9985524024
65	99039	1482.62093788058	244.73787256498
65	111825	1683.27406727401	1414.4163751517
65	123292	1858.86338572082	108.31415419794
65	137198	2077.82481253502	1060.4602398313
65	150769	2282.55003832907	400.26827033065
65	164523	2495.6948149794	456.23111047495
65	175906	2676.40193242305	319.31560911797
65	190435	2909.48402294877	2552.0630056178
65	206918	3156.51565380839	777.62545237665
65	219083	3349.91554211282	418.9029703216
65	230998	3527.04031339329	833.99684107091
66	22224	243.83399028544	398.40557359933
66	34266	448.89123828344	90.394302332773
66	43938	625.38096664577	840.048932278
66	60128	865.98549296744	663.76253431645
66	71464	1045.13048517555	1070.2197834638
66	83757	1231.92788445581	573.97430768916
66	96708	1448.50669171813	177.49658065219
66	108968	1642.29397877121	649.82669684727
66	120720	1813.89851839399	398.45977803984
66	132231	1988.31599657697	11.038326380892
66	143189	2162.58094887566	9.5980905431277
66	156025	2358.1583536328	541.3494034658
66	167111	2543.89107863594	764.05269086867
66	182880	2775.96290060114	221.37591325774
66	195690	2977.83318876435	89.698508889898
66	208623	3184.42885353053	49.98805580648
66	219525	3356.50134408763	357.74398488729
66	231912	3543.58752408426	47.951509443613
67	22397	246.71349332191	569.86335338589
67	31514	421.56257468156	380.24295323089
67	45540	640.73670963809	530.69830113862
67	56898	823.29333453152	373.61116943399
67	68294	1000.88289340925	851.55262495263
67	80170	1180.04639755175	451.98765100529
67	92714	1381.23333396851	177.91335954563
67	105727	1575.02096198358	2348.8489357909
67	118131	1775.09749862135	626.69102217792
67	130000	1953.78406268499	997.17614155415
67	141744	2143.55620641097	2451.7509059264
67	152727	2315.65198032564	938.94726217912
67	165261	2503.07796215231	533.56123807228
67	176749	2689.49985437614	471.28473836959
67	191243	2916.03727963072	1468.0113656877
67	203034	3096.02154681131	1633.9533777006
67	215603	3287.02667041834	278.42166667044
67	227234	3462.67397534965	1116.660707384
68	22476	247.99237386178	239.29509818932
68	31854	423.30839270504	505.00224880448
68	44473	632.88812564597	580.16684779666
68	56507	820.63387300246	663.04089045678
68	73913	1095.06684611857	621.71370538825
68	85372	1270.35139180249	1406.8819491685
68	97203	1453.00576911967	867.9703020171
68	108495	1635.26404277007	67.366551430185
68	120878	1817.09206226903	1850.0309457254
68	133330	2015.08194676012	542.42198263379
68	146701	2206.01049975536	1477.7419945663
68	158794	2389.49573909949	567.24209176517
68	170067	2572.21967485294	1198.0931354207
68	183213	2777.83900494327	241.98151967849
68	196180	2980.6182267721	24.414945389186
68	209456	3189.014539286	686.35598445578
68	220362	3368.50314842786	100.08215296813
68	231756	3542.03195329426	537.26549005206
69	22733	250.05221142906	500.06211065026
69	35873	472.60917586785	2554.8782699836
69	48559	680.89228947225	975.29236785763
69	61058	888.54055358144	1460.5087562304
69	72413	1063.68739117087	112.48417529743
69	84633	1251.42730746763	150.40272705781
69	95775	1425.89897048512	196.81762260178
69	110995	1667.09255084387	1013.2147230719
69	123211	1858.17314346801	140.91522760128
69	134941	2037.14515862867	156.62920555328
69	151644	2302.13218141014	514.77773134112
69	163050	2474.19644646523	69.833396471839
69	180568	2748.69099190758	457.58444279946
69	191848	2921.66641780719	628.87489985078
69	203634	3103.89185778798	14.968269728042
69	216795	3315.54484543921	34.377089502265
69	229589	3509.10441442919	1030.1175998818
70	22946	253.21244959319	1850.9445472151
70	33951	447.29680267904	886.03688995457
70	43624	623.52003379056	120.40270142035
70	55353	806.40619869375	47.732527500772
70	66947	981.44302182066	351.13788618507
70	78453	1156.35103929364	263.00194302083
70	93562	1391.993222363	962.65005307552
70	105495	1573.00171018722	5.6278257075524
70	115962	1746.30234697883	735.33561057813
70	127740	1923.25878407276	1280.7510591342
70	139320	2103.22805238837	279.78680421626
70	151223	2291.35730771007	60.520644045651
70	162810	2467.10354365178	102.93036027988
70	175140	2665.43091377197	96.43108346965
70	187824	2859.84586070192	1271.1953387553
70	200661	3054.7573748878	842.07299488516
70	213728	3248.13140829993	276.42600755427
70	226392	3454.4343687081	34.72608275604
71	23130	257.06968512877	456.93219987148
71	35293	459.06722342919	234.35825966434
71	45931	642.72704532316	1141.523899578
71	57092	827.03000944121	611.48102859419
71	68475	1003.6275408354	463.731051512
71	83368	1230.12910040413	683.44796798883
71	96628	1446.84751366998	451.15038605022
71	110393	1659.39641549548	37.214234385799
71	121042	1831.68906960084	38.234537549813
71	134518	2030.99987644826	1603.7764026096
71	146538	2204.50051340601	164.34830357898
71	157315	2377.71023260435	410.88672030684
71	168097	2552.88243840296	55.282278056554
71	178909	2728.28094487327	255.8658343115
71	192004	2922.23429613526	47.076264162923
71	204579	3122.0082621871	1189.9898694915
71	219682	3359.47948839945	51.015135144312
71	234591	3574.24517913378	98.034475076849
72	23312	261.92360538416	0.059356270344483
72	34032	448.12873784857	161.34500851692
72	45462	640.68760418971	481.23939825998
72	56010	814.21766670322	213.15441431761
72	74593	1111.28924018802	409.86920199928
72	86373	1295.92648361816	528.96749257188
72	100444	1507.25634916357	243.60749516701
72	111983	1683.62242575479	540.59031891621
72	123682	1861.14172651702	687.11947724636
72	136229	2056.18600036251	89.320500170477
72	147995	2235.39708849291	25.380910103578
72	162130	2454.01687343244	768.15998445794
72	174569	2655.02114162142	66.684545288305
72	188486	2874.38169223344	79.605364002742
72	200993	3056.91470458628	326.02053838189
72	214477	3261.07109508749	95.798382084219
72	225737	3440.79056085799	30.097607586698
73	23390	262.24972313907	751.91577733688
73	32551	433.91406789859	956.50412739112
73	43311	620.46638846276	1308.5501159473
73	58449	847.49393004504	51.592000430227
73	70068	1030.96088191232	57.520499349729
73	83290	1230.01326419823	1079.9540728306
73	98959	1481.71402166999	242.83688790568
73	112936	1696.11235404701	109.98179811547
73	124713	1876.06860940988	518.41912429926
73	136965	2076.20031819053	1535.5910975261
73	149088	2256.34770385555	302.215414488
73	161314	2436.0948762805	689.29665561616
73	172700	2613.29304635467	629.55682761792
73	185304	2802.33809212385	1993.2074256165
73	199974	3042.06130804866	428.40673042607
73	213649	3247.87480302435	81.682707739946
73	227315	3464.25474991422	412.89882962754
74	23470	263.53439853989	1346.0384675166
74	34520	449.58292853287	213.84314165499
74	44629	633.63332316205	1939.7029905223
74	56585	820.79955671065	175.71386400787
74	68135	998.66497509571	235.29245633438
74	81194	1196.2887204585	754.893624437
74	97450	1459.37336322163	1667.7899659565
74	112593	1690.49638402844	816.9006216959
74	126078	1899.65401732705	489.47693769552
74	137120	2077.69453351236	833.34490432591
74	149723	2266.22940804859	176.34769152653
74	163706	2483.90309672291	1296.37784165
74	174724	2658.62383826971	144.65016023729
74	189061	2882.30644577926	423.18963917802
74	201788	3061.73896383405	102.4146360465
74	214789	3266.07690715391	603.45414602049
74	225894	3445.96459298371	132.99134053561
75	23788	268.02409237593	569.21726199866
75	33872	446.56755855483	965.95918126164
75	43859	625.23409195382	147.47457880996
75	59705	860.49117686078	972.42271415627
75	70228	1032.57877541696	636.49457737382
75	82192	1210.53133253708	276.25237069482
75	95108	1416.94940965423	0.45435467411332
75	107959	1617.79537609155	288.13102727385
75	120098	1801.93383080233	2226.4772693409
75	133171	2012.104875785	1126.2050728285
75	146968	2209.26286688839	177.18097934245
75	158281	2387.65119411205	273.49795190991
75	171490	2587.94534807764	114.01053074011
75	183797	2783.72988980273	559.32298710643
75	197870	3003.1497864912	160.5626828944
75	209816	3196.64578469304	564.48197956066
75	221374	3376.43044645605	69.14682009562
75	232602	3552.18531543962	195.1027057865
76	24109	292.89846710789	19.636543833863
76	35952	473.51433703369	431.24738841881
76	46537	645.99002490123	46.796378487213
76	57930	837.94530841312	354.57167315025
76	70560	1034.69305936736	746.60836374205
76	84029	1237.52608423605	351.3036666303
76	95443	1423.32212745894	125.8783524312
76	106912	1609.22652859789	73.267857091163
76	119170	1790.86870035712	38.884353663567
76	130759	1966.14946937807	364.48283691334
76	141666	2143.00261438754	600.49043710542
76	158873	2389.89179402259	12.709435518411
76	171146	2583.5667380414	1002.5178301819
76	186810	2845.28585971884	1093.6322400846
76	198794	3027.1273370785	61.82492680771
76	209972	3200.39646956883	520.78413634955
76	222701	3392.76707873822	136.13858999871
76	235439	3587.05974764743	880.97781403963
77	24268	305.8474419131	779.05749577184
77	36218	479.90165952386	760.39148104823
77	49977	729.99390572106	761.79910363522
77	62025	920.18402628269	1275.7078816689
77	73759	1092.66373887274	81.370931229521
77	85683	1274.24497045707	1594.3200550101
77	98362	1476.07520753226	221.30920067943
77	109488	1651.04225705107	483.32410945589
77	124536	1873.73031148246	138.15598431965
77	138639	2095.92906428305	525.80544649396
77	150356	2279.51482957764	193.97369874367
77	162288	2457.21948042282	457.69979197646
77	174251	2648.1167670586	427.93971966265
77	186044	2820.70979553357	952.96130365376
77	198716	3026.43359420859	913.15431199284
77	210646	3210.31267948466	1245.8825827811
77	225079	3425.03355300097	1258.643744164
78	31669	421.83125488927	3.67528917802
78	37258	519.62540925568	1.71213218083
78	37734	551.24704162597	1.71213044022
78	40029	585.62587106618	1.71213112106
78	51419	756.82853595427	1.71213010313
78	58443	845.64616086377	1.71213125533
78	59542	858.60389948163	1.71213074919
78	87407	1305.53440443383	1.71212967683
78	101747	1523.41161156125	1.71213030102
78	104857	1560.89174730087	1.71213005368
78	106261	1579.88656509298	1.71213040283
78	106824	1596.94073974301	1.71213125533
78	107431	1613.30414187493	1.71212974324
78	110605	1661.10854551519	1.71213001971
78	117673	1761.30759527069	1.71213097086
78	119299	1791.06490350866	1.71212974324
78	120232	1802.60864695348	1.71213026315
78	121176	1833.40119962055	1.71213001971
78	125840	1897.0753542909	1.71213319456
78	128048	1927.81771167556	1.71213104074
78	130752	1965.19815583983	1.71213061383
78	137697	2081.2538505416	1.71213064138
78	140337	2122.14232949363	1.71213074919
78	147479	2218.68139142857	1.71213131862
78	148628	2241.78231615207	1.71213011658
78	154640	2335.20809191253	1.71213040283
78	159211	2391.60392569481	1.71213167222
78	160589	2413.05233345986	1.71213011658
78	162080	2451.91882528705	1.71212964413
78	166749	2520.60462208227	1.71213045219
78	168971	2561.37760132807	1.71213033081
78	179586	2743.04247094009	1.71213010313
78	187256	2849.1443135789	1.71213041055
78	191117	2914.10907423467	1.71213040283
78	192375	2923.94642615497	1.71213001971
78	194807	2957.84611663676	1.71212967683
78	203881	3105.6039883891	1.71213060112
78	205275	3135.94237393951	1.71213227914
78	217195	3317.25697604033	1.71213060112
78	225712	3428.31282717438	1.71213061383
78	233400	3561.40681868509	1.71213045115
79	31669	421.83125488927	3.67528917802
79	37258	519.62540925568	1.71213218083
79	37734	551.24704162597	1.71213044022
79	40029	585.62587106618	1.71213112106
79	51419	756.82853595427	1.71213010313
79	58443	845.64616086377	1.71213125533
79	59542	858.60389948163	1.71213074919
79	87407	1305.53440443383	1.71212967683
79	101747	1523.41161156125	1.71213030102
79	104857	1560.89174730087	1.71213005368
79	106261	1579.88656509298	1.71213040283
79	106824	1596.94073974301	1.71213125533
79	107431	1613.30414187493	1.71212974324
79	110605	1661.10854551519	1.71213001971
79	117673	1761.30759527069	1.71213097086
79	119299	1791.06490350866	1.71212974324
79	120232	1802.60864695348	1.71213026315
79	121176	1833.40119962055	1.71213001971
79	125840	1897.0753542909	1.71213319456
79	128048	1927.81771167556	1.71213104074
79	130752	1965.19815583983	1.71213061383
79	137697	2081.2538505416	1.71213064138
79	140337	2122.14232949363	1.71213074919
79	147479	2218.68139142857	1.71213131862
79	148628	2241.78231615207	1.71213011658
79	154640	2335.20809191253	1.71213040283
79	159211	2391.60392569481	1.71213167222
79	160589	2413.05233345986	1.71213011658
79	162080	2451.91882528705	1.71212964413
79	166749	2520.60462208227	1.71213045219
79	168971	2561.37760132807	1.71213033081
79	179586	2743.04247094009	1.71213010313
79	187256	2849.1443135789	1.71213041055
79	191117	2914.10907423467	1.71213040283
79	192375	2923.94642615497	1.71213001971
79	194807	2957.84611663676	1.71212967683
79	203881	3105.6039883891	1.71213060112
79	205275	3135.94237393951	1.71213227914
79	217195	3317.25697604033	1.71213060112
79	225712	3428.31282717438	1.71213061383
79	233400	3561.40681868509	1.71213045115

