version 3
run N75-14-20260518-02:27:10-159888
attr configname N75
attr datetime 20260518-02:27:10
attr datetimef 20260518-022710
attr experiment N75
attr inifile omnetpp.ini
attr iterationvars "$0=\"avg\""
attr iterationvarsd avg
attr iterationvarsf avg-
attr measurement "$0=\"avg\""
attr network test2.LoRaNetworkTest
attr processid 159888
attr repetition 14
attr replication #14
attr resultdir results
attr runnumber 14
attr seedset 14
config extends General
config **.numPatients 75
config network test2.LoRaNetworkTest
config sim-time-limit 1h
config warmup-period 60s
config simtime-resolution -11
config repeat 30
config rng-class cMersenneTwister
config record-eventlog false
config **.numPatients 20
config **.HospitalServer.app[0].queueLength:vector.vector-recording true
config **.HospitalServer.app[0].urgentWaitTime:vector.vector-recording true
config **.HospitalServer.app[0].normalWaitTime:vector.vector-recording true
config **.HospitalServer.app[0].urgentEndToEndDelay:vector.vector-recording true
config **.HospitalServer.app[0].normalEndToEndDelay:vector.vector-recording true
config **.loRaNodes[*].app[0].emergencyVariate:vector.vector-recording true
config **.vector-recording false
config **.loRaNodes[0].**.initialX "300m + uniform(-10m, 10m)"
config **.loRaNodes[0].**.initialY "250m + uniform(-8m, 8m)"
config **.loRaNodes[1].**.initialX "450m + uniform(-10m, 10m)"
config **.loRaNodes[1].**.initialY "250m + uniform(-8m, 8m)"
config **.loRaNodes[2].**.initialX "600m + uniform(-10m, 10m)"
config **.loRaNodes[2].**.initialY "250m + uniform(-8m, 8m)"
config **.loRaNodes[3].**.initialX "750m + uniform(-10m, 10m)"
config **.loRaNodes[3].**.initialY "250m + uniform(-8m, 8m)"
config **.loRaNodes[4].**.initialX "900m + uniform(-10m, 10m)"
config **.loRaNodes[4].**.initialY "250m + uniform(-8m, 8m)"
config **.loRaNodes[5].**.initialX "1050m + uniform(-10m, 10m)"
config **.loRaNodes[5].**.initialY "250m + uniform(-8m, 8m)"
config **.loRaNodes[6].**.initialX "1200m + uniform(-10m, 10m)"
config **.loRaNodes[6].**.initialY "250m + uniform(-8m, 8m)"
config **.loRaNodes[7].**.initialX "1350m + uniform(-10m, 10m)"
config **.loRaNodes[7].**.initialY "250m + uniform(-8m, 8m)"
config **.loRaNodes[8].**.initialX "1500m + uniform(-10m, 10m)"
config **.loRaNodes[8].**.initialY "250m + uniform(-8m, 8m)"
config **.loRaNodes[9].**.initialX "1650m + uniform(-10m, 10m)"
config **.loRaNodes[9].**.initialY "250m + uniform(-8m, 8m)"
config **.loRaNodes[10].**.initialX "300m + uniform(-10m, 10m)"
config **.loRaNodes[10].**.initialY "370m + uniform(-8m, 8m)"
config **.loRaNodes[11].**.initialX "450m + uniform(-10m, 10m)"
config **.loRaNodes[11].**.initialY "370m + uniform(-8m, 8m)"
config **.loRaNodes[12].**.initialX "600m + uniform(-10m, 10m)"
config **.loRaNodes[12].**.initialY "370m + uniform(-8m, 8m)"
config **.loRaNodes[13].**.initialX "750m + uniform(-10m, 10m)"
config **.loRaNodes[13].**.initialY "370m + uniform(-8m, 8m)"
config **.loRaNodes[14].**.initialX "900m + uniform(-10m, 10m)"
config **.loRaNodes[14].**.initialY "370m + uniform(-8m, 8m)"
config **.loRaNodes[15].**.initialX "1050m + uniform(-10m, 10m)"
config **.loRaNodes[15].**.initialY "370m + uniform(-8m, 8m)"
config **.loRaNodes[16].**.initialX "1200m + uniform(-10m, 10m)"
config **.loRaNodes[16].**.initialY "370m + uniform(-8m, 8m)"
config **.loRaNodes[17].**.initialX "1350m + uniform(-10m, 10m)"
config **.loRaNodes[17].**.initialY "370m + uniform(-8m, 8m)"
config **.loRaNodes[18].**.initialX "1500m + uniform(-10m, 10m)"
config **.loRaNodes[18].**.initialY "370m + uniform(-8m, 8m)"
config **.loRaNodes[19].**.initialX "1650m + uniform(-10m, 10m)"
config **.loRaNodes[19].**.initialY "370m + uniform(-8m, 8m)"
config **.loRaNodes[20].**.initialX "300m + uniform(-10m, 10m)"
config **.loRaNodes[20].**.initialY "490m + uniform(-8m, 8m)"
config **.loRaNodes[21].**.initialX "450m + uniform(-10m, 10m)"
config **.loRaNodes[21].**.initialY "490m + uniform(-8m, 8m)"
config **.loRaNodes[22].**.initialX "600m + uniform(-10m, 10m)"
config **.loRaNodes[22].**.initialY "490m + uniform(-8m, 8m)"
config **.loRaNodes[23].**.initialX "750m + uniform(-10m, 10m)"
config **.loRaNodes[23].**.initialY "490m + uniform(-8m, 8m)"
config **.loRaNodes[24].**.initialX "900m + uniform(-10m, 10m)"
config **.loRaNodes[24].**.initialY "490m + uniform(-8m, 8m)"
config **.loRaNodes[25].**.initialX "1050m + uniform(-10m, 10m)"
config **.loRaNodes[25].**.initialY "490m + uniform(-8m, 8m)"
config **.loRaNodes[26].**.initialX "1200m + uniform(-10m, 10m)"
config **.loRaNodes[26].**.initialY "490m + uniform(-8m, 8m)"
config **.loRaNodes[27].**.initialX "1350m + uniform(-10m, 10m)"
config **.loRaNodes[27].**.initialY "490m + uniform(-8m, 8m)"
config **.loRaNodes[28].**.initialX "1500m + uniform(-10m, 10m)"
config **.loRaNodes[28].**.initialY "490m + uniform(-8m, 8m)"
config **.loRaNodes[29].**.initialX "1650m + uniform(-10m, 10m)"
config **.loRaNodes[29].**.initialY "490m + uniform(-8m, 8m)"
config **.loRaNodes[30].**.initialX "300m + uniform(-10m, 10m)"
config **.loRaNodes[30].**.initialY "610m + uniform(-8m, 8m)"
config **.loRaNodes[31].**.initialX "450m + uniform(-10m, 10m)"
config **.loRaNodes[31].**.initialY "610m + uniform(-8m, 8m)"
config **.loRaNodes[32].**.initialX "600m + uniform(-10m, 10m)"
config **.loRaNodes[32].**.initialY "610m + uniform(-8m, 8m)"
config **.loRaNodes[33].**.initialX "750m + uniform(-10m, 10m)"
config **.loRaNodes[33].**.initialY "610m + uniform(-8m, 8m)"
config **.loRaNodes[34].**.initialX "900m + uniform(-10m, 10m)"
config **.loRaNodes[34].**.initialY "610m + uniform(-8m, 8m)"
config **.loRaNodes[35].**.initialX "1050m + uniform(-10m, 10m)"
config **.loRaNodes[35].**.initialY "610m + uniform(-8m, 8m)"
config **.loRaNodes[36].**.initialX "1200m + uniform(-10m, 10m)"
config **.loRaNodes[36].**.initialY "610m + uniform(-8m, 8m)"
config **.loRaNodes[37].**.initialX "1350m + uniform(-10m, 10m)"
config **.loRaNodes[37].**.initialY "610m + uniform(-8m, 8m)"
config **.loRaNodes[38].**.initialX "1500m + uniform(-10m, 10m)"
config **.loRaNodes[38].**.initialY "610m + uniform(-8m, 8m)"
config **.loRaNodes[39].**.initialX "1650m + uniform(-10m, 10m)"
config **.loRaNodes[39].**.initialY "610m + uniform(-8m, 8m)"
config **.loRaNodes[40].**.initialX "300m + uniform(-10m, 10m)"
config **.loRaNodes[40].**.initialY "730m + uniform(-8m, 8m)"
config **.loRaNodes[41].**.initialX "450m + uniform(-10m, 10m)"
config **.loRaNodes[41].**.initialY "730m + uniform(-8m, 8m)"
config **.loRaNodes[42].**.initialX "600m + uniform(-10m, 10m)"
config **.loRaNodes[42].**.initialY "730m + uniform(-8m, 8m)"
config **.loRaNodes[43].**.initialX "750m + uniform(-10m, 10m)"
config **.loRaNodes[43].**.initialY "730m + uniform(-8m, 8m)"
config **.loRaNodes[44].**.initialX "900m + uniform(-10m, 10m)"
config **.loRaNodes[44].**.initialY "730m + uniform(-8m, 8m)"
config **.loRaNodes[45].**.initialX "1050m + uniform(-10m, 10m)"
config **.loRaNodes[45].**.initialY "730m + uniform(-8m, 8m)"
config **.loRaNodes[46].**.initialX "1200m + uniform(-10m, 10m)"
config **.loRaNodes[46].**.initialY "730m + uniform(-8m, 8m)"
config **.loRaNodes[47].**.initialX "1350m + uniform(-10m, 10m)"
config **.loRaNodes[47].**.initialY "730m + uniform(-8m, 8m)"
config **.loRaNodes[48].**.initialX "1500m + uniform(-10m, 10m)"
config **.loRaNodes[48].**.initialY "730m + uniform(-8m, 8m)"
config **.loRaNodes[49].**.initialX "1650m + uniform(-10m, 10m)"
config **.loRaNodes[49].**.initialY "730m + uniform(-8m, 8m)"
config **.loRaNodes[50].**.initialX "300m + uniform(-10m, 10m)"
config **.loRaNodes[50].**.initialY "850m + uniform(-8m, 8m)"
config **.loRaNodes[51].**.initialX "450m + uniform(-10m, 10m)"
config **.loRaNodes[51].**.initialY "850m + uniform(-8m, 8m)"
config **.loRaNodes[52].**.initialX "600m + uniform(-10m, 10m)"
config **.loRaNodes[52].**.initialY "850m + uniform(-8m, 8m)"
config **.loRaNodes[53].**.initialX "750m + uniform(-10m, 10m)"
config **.loRaNodes[53].**.initialY "850m + uniform(-8m, 8m)"
config **.loRaNodes[54].**.initialX "900m + uniform(-10m, 10m)"
config **.loRaNodes[54].**.initialY "850m + uniform(-8m, 8m)"
config **.loRaNodes[55].**.initialX "1050m + uniform(-10m, 10m)"
config **.loRaNodes[55].**.initialY "850m + uniform(-8m, 8m)"
config **.loRaNodes[56].**.initialX "1200m + uniform(-10m, 10m)"
config **.loRaNodes[56].**.initialY "850m + uniform(-8m, 8m)"
config **.loRaNodes[57].**.initialX "1350m + uniform(-10m, 10m)"
config **.loRaNodes[57].**.initialY "850m + uniform(-8m, 8m)"
config **.loRaNodes[58].**.initialX "1500m + uniform(-10m, 10m)"
config **.loRaNodes[58].**.initialY "850m + uniform(-8m, 8m)"
config **.loRaNodes[59].**.initialX "1650m + uniform(-10m, 10m)"
config **.loRaNodes[59].**.initialY "850m + uniform(-8m, 8m)"
config **.loRaNodes[60].**.initialX "300m + uniform(-10m, 10m)"
config **.loRaNodes[60].**.initialY "970m + uniform(-8m, 8m)"
config **.loRaNodes[61].**.initialX "450m + uniform(-10m, 10m)"
config **.loRaNodes[61].**.initialY "970m + uniform(-8m, 8m)"
config **.loRaNodes[62].**.initialX "600m + uniform(-10m, 10m)"
config **.loRaNodes[62].**.initialY "970m + uniform(-8m, 8m)"
config **.loRaNodes[63].**.initialX "750m + uniform(-10m, 10m)"
config **.loRaNodes[63].**.initialY "970m + uniform(-8m, 8m)"
config **.loRaNodes[64].**.initialX "900m + uniform(-10m, 10m)"
config **.loRaNodes[64].**.initialY "970m + uniform(-8m, 8m)"
config **.loRaNodes[65].**.initialX "1050m + uniform(-10m, 10m)"
config **.loRaNodes[65].**.initialY "970m + uniform(-8m, 8m)"
config **.loRaNodes[66].**.initialX "1200m + uniform(-10m, 10m)"
config **.loRaNodes[66].**.initialY "970m + uniform(-8m, 8m)"
config **.loRaNodes[67].**.initialX "1350m + uniform(-10m, 10m)"
config **.loRaNodes[67].**.initialY "970m + uniform(-8m, 8m)"
config **.loRaNodes[68].**.initialX "1500m + uniform(-10m, 10m)"
config **.loRaNodes[68].**.initialY "970m + uniform(-8m, 8m)"
config **.loRaNodes[69].**.initialX "1650m + uniform(-10m, 10m)"
config **.loRaNodes[69].**.initialY "970m + uniform(-8m, 8m)"
config **.loRaNodes[70].**.initialX "300m + uniform(-10m, 10m)"
config **.loRaNodes[70].**.initialY "1090m + uniform(-8m, 8m)"
config **.loRaNodes[71].**.initialX "450m + uniform(-10m, 10m)"
config **.loRaNodes[71].**.initialY "1090m + uniform(-8m, 8m)"
config **.loRaNodes[72].**.initialX "600m + uniform(-10m, 10m)"
config **.loRaNodes[72].**.initialY "1090m + uniform(-8m, 8m)"
config **.loRaNodes[73].**.initialX "750m + uniform(-10m, 10m)"
config **.loRaNodes[73].**.initialY "1090m + uniform(-8m, 8m)"
config **.loRaNodes[74].**.initialX "900m + uniform(-10m, 10m)"
config **.loRaNodes[74].**.initialY "1090m + uniform(-8m, 8m)"
config **.HospitalServer.numApps 1
config **.HospitalServer.app[0].typename HospitalServerApp
config **.HospitalServer.app[0].destPort 2000
config **.HospitalServer.app[0].localPort 1000
config **.HospitalServer.app[0].adrMethod "\"avg\""
config **.HospitalServer.**.evaluateADRinServer true
config **.HospitalServer.app[0].queueSize 50
config **.HospitalServer.app[0].expo_rate_lambda 0.83
config **.loRaGateway.numUdpApps 1
config **.loRaGateway.packetForwarder.localPort 2000
config **.loRaGateway.packetForwarder.destPort 1000
config **.loRaGateway.packetForwarder.destAddresses "\"HospitalServer\""
config **.loRaGateway.**.initFromDisplayString false
config **.loRaGateway.**.initialX 544.00m
config **.loRaGateway.**.initialY 544.00m
config **.loRaNodes[*].numApps 1
config **.loRaNodes[*].app[0].typename PatientSensorApp
config **.loRaNodes[*].app[0].expo_rate_lambda 0.00175
config **.loRaNodes[*].app[0].emergencyThreshold 50
config **.loRaNodes[*].**.timeToFirstPacket exponential(24s)
config **.loRaNodes[*].**.timeToNextPacket exponential(24s)
config **.loRaNodes[*].**.numberOfPacketsToSend 0
config **.loRaNodes[*].**initialLoRaSF 12
config **.loRaNodes[*].**initialLoRaTP 14dBm
config **.loRaNodes[*].**initialLoRaBW "125 kHz"
config **.loRaNodes[*].**initialLoRaCR 4
config **.loRaNodes[*].**.initFromDisplayString false
config **.loRaNodes[*].**.evaluateADRinNode true
config **.loRaNodes[*].LoRaNic.radio.energyConsumer.typename LoRaEnergyConsumer
config **.loRaNodes[*].**.energySourceModule "\"^.IdealEpEnergyStorage\""
config **.loRaNodes[*].LoRaNic.radio.energyConsumer.configFile "xmldoc(\"energyConsumptionParam.xml\")"
config **.maxTransmissionDuration 4s
config **.energyDetection -110dBm
config **.radio.radioMediumModule "\"LoRaMedium\""
config **.minInterferenceTime 0s
config **.constraintAreaMinX 0m
config **.constraintAreaMinY 0m
config **.constraintAreaMinZ 0m
config **.constraintAreaMaxZ 0m
config **.constraintAreaMaxX 3000.0m
config **.constraintAreaMaxY 3000.0m

vector 0 LoRaNetworkTest.HospitalServer.app[0] queueLength:vector ETV
attr recordingmode vector
attr title "Total queue length"
vector 1 LoRaNetworkTest.HospitalServer.app[0] normalWaitTime:vector ETV
attr recordingmode vector
attr title "Normal wait time (s)"
vector 2 LoRaNetworkTest.HospitalServer.app[0] normalEndToEndDelay:vector ETV
attr recordingmode vector
attr title "Normal end-to-end delay (s)"
vector 3 LoRaNetworkTest.loRaNodes[42].app[0] emergencyVariate:vector ETV
attr recordingmode vector
attr title "Exponential variate samples"
vector 4 LoRaNetworkTest.loRaNodes[33].app[0] emergencyVariate:vector ETV
attr recordingmode vector
attr title "Exponential variate samples"
vector 5 LoRaNetworkTest.loRaNodes[45].app[0] emergencyVariate:vector ETV
attr recordingmode vector
attr title "Exponential variate samples"
vector 6 LoRaNetworkTest.loRaNodes[71].app[0] emergencyVariate:vector ETV
attr recordingmode vector
attr title "Exponential variate samples"
vector 7 LoRaNetworkTest.loRaNodes[68].app[0] emergencyVariate:vector ETV
attr recordingmode vector
attr title "Exponential variate samples"
vector 8 LoRaNetworkTest.loRaNodes[65].app[0] emergencyVariate:vector ETV
attr recordingmode vector
attr title "Exponential variate samples"
vector 9 LoRaNetworkTest.loRaNodes[67].app[0] emergencyVariate:vector ETV
attr recordingmode vector
attr title "Exponential variate samples"
vector 10 LoRaNetworkTest.loRaNodes[5].app[0] emergencyVariate:vector ETV
attr recordingmode vector
attr title "Exponential variate samples"
vector 11 LoRaNetworkTest.loRaNodes[47].app[0] emergencyVariate:vector ETV
attr recordingmode vector
attr title "Exponential variate samples"
vector 12 LoRaNetworkTest.loRaNodes[16].app[0] emergencyVariate:vector ETV
attr recordingmode vector
attr title "Exponential variate samples"
vector 13 LoRaNetworkTest.HospitalServer.app[0] urgentWaitTime:vector ETV
attr recordingmode vector
attr title "Urgent wait time (s)"
vector 14 LoRaNetworkTest.HospitalServer.app[0] urgentEndToEndDelay:vector ETV
attr recordingmode vector
attr title "Urgent end-to-end delay (s)"
vector 15 LoRaNetworkTest.loRaNodes[18].app[0] emergencyVariate:vector ETV
attr recordingmode vector
attr title "Exponential variate samples"
vector 16 LoRaNetworkTest.loRaNodes[54].app[0] emergencyVariate:vector ETV
attr recordingmode vector
attr title "Exponential variate samples"
vector 17 LoRaNetworkTest.loRaNodes[14].app[0] emergencyVariate:vector ETV
attr recordingmode vector
attr title "Exponential variate samples"
vector 18 LoRaNetworkTest.loRaNodes[59].app[0] emergencyVariate:vector ETV
attr recordingmode vector
attr title "Exponential variate samples"
vector 19 LoRaNetworkTest.loRaNodes[15].app[0] emergencyVariate:vector ETV
attr recordingmode vector
attr title "Exponential variate samples"
vector 20 LoRaNetworkTest.loRaNodes[28].app[0] emergencyVariate:vector ETV
attr recordingmode vector
attr title "Exponential variate samples"
vector 21 LoRaNetworkTest.loRaNodes[51].app[0] emergencyVariate:vector ETV
attr recordingmode vector
attr title "Exponential variate samples"
vector 22 LoRaNetworkTest.loRaNodes[27].app[0] emergencyVariate:vector ETV
attr recordingmode vector
attr title "Exponential variate samples"
vector 23 LoRaNetworkTest.loRaNodes[0].app[0] emergencyVariate:vector ETV
attr recordingmode vector
attr title "Exponential variate samples"
vector 24 LoRaNetworkTest.loRaNodes[30].app[0] emergencyVariate:vector ETV
attr recordingmode vector
attr title "Exponential variate samples"
vector 25 LoRaNetworkTest.loRaNodes[70].app[0] emergencyVariate:vector ETV
attr recordingmode vector
attr title "Exponential variate samples"
vector 26 LoRaNetworkTest.loRaNodes[50].app[0] emergencyVariate:vector ETV
attr recordingmode vector
attr title "Exponential variate samples"
vector 27 LoRaNetworkTest.loRaNodes[60].app[0] emergencyVariate:vector ETV
attr recordingmode vector
attr title "Exponential variate samples"
vector 28 LoRaNetworkTest.loRaNodes[26].app[0] emergencyVariate:vector ETV
attr recordingmode vector
attr title "Exponential variate samples"
vector 29 LoRaNetworkTest.loRaNodes[40].app[0] emergencyVariate:vector ETV
attr recordingmode vector
attr title "Exponential variate samples"
vector 30 LoRaNetworkTest.loRaNodes[63].app[0] emergencyVariate:vector ETV
attr recordingmode vector
attr title "Exponential variate samples"
vector 31 LoRaNetworkTest.loRaNodes[38].app[0] emergencyVariate:vector ETV
attr recordingmode vector
attr title "Exponential variate samples"
vector 32 LoRaNetworkTest.loRaNodes[25].app[0] emergencyVariate:vector ETV
attr recordingmode vector
attr title "Exponential variate samples"
vector 33 LoRaNetworkTest.loRaNodes[66].app[0] emergencyVariate:vector ETV
attr recordingmode vector
attr title "Exponential variate samples"
vector 34 LoRaNetworkTest.loRaNodes[55].app[0] emergencyVariate:vector ETV
attr recordingmode vector
attr title "Exponential variate samples"
vector 35 LoRaNetworkTest.loRaNodes[58].app[0] emergencyVariate:vector ETV
attr recordingmode vector
attr title "Exponential variate samples"
vector 36 LoRaNetworkTest.loRaNodes[17].app[0] emergencyVariate:vector ETV
attr recordingmode vector
attr title "Exponential variate samples"
vector 37 LoRaNetworkTest.loRaNodes[29].app[0] emergencyVariate:vector ETV
attr recordingmode vector
attr title "Exponential variate samples"
vector 38 LoRaNetworkTest.loRaNodes[49].app[0] emergencyVariate:vector ETV
attr recordingmode vector
attr title "Exponential variate samples"
vector 39 LoRaNetworkTest.loRaNodes[22].app[0] emergencyVariate:vector ETV
attr recordingmode vector
attr title "Exponential variate samples"
vector 40 LoRaNetworkTest.loRaNodes[69].app[0] emergencyVariate:vector ETV
attr recordingmode vector
attr title "Exponential variate samples"
vector 41 LoRaNetworkTest.loRaNodes[20].app[0] emergencyVariate:vector ETV
attr recordingmode vector
attr title "Exponential variate samples"
vector 42 LoRaNetworkTest.loRaNodes[21].app[0] emergencyVariate:vector ETV
attr recordingmode vector
attr title "Exponential variate samples"
vector 43 LoRaNetworkTest.loRaNodes[56].app[0] emergencyVariate:vector ETV
attr recordingmode vector
attr title "Exponential variate samples"
vector 44 LoRaNetworkTest.loRaNodes[3].app[0] emergencyVariate:vector ETV
attr recordingmode vector
attr title "Exponential variate samples"
vector 45 LoRaNetworkTest.loRaNodes[6].app[0] emergencyVariate:vector ETV
attr recordingmode vector
attr title "Exponential variate samples"
vector 46 LoRaNetworkTest.loRaNodes[32].app[0] emergencyVariate:vector ETV
attr recordingmode vector
attr title "Exponential variate samples"
vector 47 LoRaNetworkTest.loRaNodes[39].app[0] emergencyVariate:vector ETV
attr recordingmode vector
attr title "Exponential variate samples"
vector 48 LoRaNetworkTest.loRaNodes[11].app[0] emergencyVariate:vector ETV
attr recordingmode vector
attr title "Exponential variate samples"
vector 49 LoRaNetworkTest.loRaNodes[36].app[0] emergencyVariate:vector ETV
attr recordingmode vector
attr title "Exponential variate samples"
vector 50 LoRaNetworkTest.loRaNodes[34].app[0] emergencyVariate:vector ETV
attr recordingmode vector
attr title "Exponential variate samples"
vector 51 LoRaNetworkTest.loRaNodes[43].app[0] emergencyVariate:vector ETV
attr recordingmode vector
attr title "Exponential variate samples"
vector 52 LoRaNetworkTest.loRaNodes[12].app[0] emergencyVariate:vector ETV
attr recordingmode vector
attr title "Exponential variate samples"
vector 53 LoRaNetworkTest.loRaNodes[24].app[0] emergencyVariate:vector ETV
attr recordingmode vector
attr title "Exponential variate samples"
vector 54 LoRaNetworkTest.loRaNodes[9].app[0] emergencyVariate:vector ETV
attr recordingmode vector
attr title "Exponential variate samples"
vector 55 LoRaNetworkTest.loRaNodes[57].app[0] emergencyVariate:vector ETV
attr recordingmode vector
attr title "Exponential variate samples"
vector 56 LoRaNetworkTest.loRaNodes[4].app[0] emergencyVariate:vector ETV
attr recordingmode vector
attr title "Exponential variate samples"
vector 57 LoRaNetworkTest.loRaNodes[53].app[0] emergencyVariate:vector ETV
attr recordingmode vector
attr title "Exponential variate samples"
vector 58 LoRaNetworkTest.loRaNodes[19].app[0] emergencyVariate:vector ETV
attr recordingmode vector
attr title "Exponential variate samples"
vector 59 LoRaNetworkTest.loRaNodes[72].app[0] emergencyVariate:vector ETV
attr recordingmode vector
attr title "Exponential variate samples"
vector 60 LoRaNetworkTest.loRaNodes[10].app[0] emergencyVariate:vector ETV
attr recordingmode vector
attr title "Exponential variate samples"
vector 61 LoRaNetworkTest.loRaNodes[1].app[0] emergencyVariate:vector ETV
attr recordingmode vector
attr title "Exponential variate samples"
vector 62 LoRaNetworkTest.loRaNodes[8].app[0] emergencyVariate:vector ETV
attr recordingmode vector
attr title "Exponential variate samples"
vector 63 LoRaNetworkTest.loRaNodes[2].app[0] emergencyVariate:vector ETV
attr recordingmode vector
attr title "Exponential variate samples"
vector 64 LoRaNetworkTest.loRaNodes[73].app[0] emergencyVariate:vector ETV
attr recordingmode vector
attr title "Exponential variate samples"
vector 65 LoRaNetworkTest.loRaNodes[61].app[0] emergencyVariate:vector ETV
attr recordingmode vector
attr title "Exponential variate samples"
vector 66 LoRaNetworkTest.loRaNodes[13].app[0] emergencyVariate:vector ETV
attr recordingmode vector
attr title "Exponential variate samples"
vector 67 LoRaNetworkTest.loRaNodes[52].app[0] emergencyVariate:vector ETV
attr recordingmode vector
attr title "Exponential variate samples"
vector 68 LoRaNetworkTest.loRaNodes[37].app[0] emergencyVariate:vector ETV
attr recordingmode vector
attr title "Exponential variate samples"
vector 69 LoRaNetworkTest.loRaNodes[41].app[0] emergencyVariate:vector ETV
attr recordingmode vector
attr title "Exponential variate samples"
vector 70 LoRaNetworkTest.loRaNodes[7].app[0] emergencyVariate:vector ETV
attr recordingmode vector
attr title "Exponential variate samples"
vector 71 LoRaNetworkTest.loRaNodes[31].app[0] emergencyVariate:vector ETV
attr recordingmode vector
attr title "Exponential variate samples"
vector 72 LoRaNetworkTest.loRaNodes[46].app[0] emergencyVariate:vector ETV
attr recordingmode vector
attr title "Exponential variate samples"
vector 73 LoRaNetworkTest.loRaNodes[62].app[0] emergencyVariate:vector ETV
attr recordingmode vector
attr title "Exponential variate samples"
vector 74 LoRaNetworkTest.loRaNodes[64].app[0] emergencyVariate:vector ETV
attr recordingmode vector
attr title "Exponential variate samples"
vector 75 LoRaNetworkTest.loRaNodes[35].app[0] emergencyVariate:vector ETV
attr recordingmode vector
attr title "Exponential variate samples"
vector 76 LoRaNetworkTest.loRaNodes[48].app[0] emergencyVariate:vector ETV
attr recordingmode vector
attr title "Exponential variate samples"
vector 77 LoRaNetworkTest.loRaNodes[23].app[0] emergencyVariate:vector ETV
attr recordingmode vector
attr title "Exponential variate samples"
vector 78 LoRaNetworkTest.loRaNodes[74].app[0] emergencyVariate:vector ETV
attr recordingmode vector
attr title "Exponential variate samples"
vector 79 LoRaNetworkTest.loRaNodes[44].app[0] emergencyVariate:vector ETV
attr recordingmode vector
attr title "Exponential variate samples"
0	11484	60.97988582979	1
0	11484	60.97988582979	0
0	11645	66.65945883472	1
0	11645	66.65945883472	0
0	11837	71.69073456098	1
0	11837	71.69073456098	0
0	12696	180.18432849457	1
0	12696	180.18432849457	0
0	13190	185.14117511313	1
0	13190	185.14117511313	0
0	13764	189.67154704063	1
0	13764	189.67154704063	0
0	14394	194.05581425868	1
0	14394	194.05581425868	0
0	14647	196.42202104026	1
0	14647	196.42202104026	0
0	14996	198.72594540613	1
0	14996	198.72594540613	0
0	17328	211.26403249737	1
0	17328	211.26403249737	0
0	17816	213.5928317239	1
0	17816	213.5928317239	0
0	18401	216.31634505247	1
0	18401	216.31634505247	0
0	18746	221.4758241824	1
0	18746	221.4758241824	0
0	19479	229.44155101729	1
0	19479	229.44155101729	0
0	20407	235.07024020686	1
0	20407	235.07024020686	0
0	20958	239.21469130126	1
0	20958	239.21469130126	0
0	21307	242.15221537062	1
0	21307	242.15221537062	0
0	22303	251.57694849953	1
0	22303	251.57694849953	0
0	22553	254.30092573742	1
0	22553	254.30092573742	0
0	23205	264.0546008148	1
0	23205	264.0546008148	0
0	23753	274.70918391285	1
0	23753	274.70918391285	0
0	24230	299.95293395629	1
0	24230	299.95293395629	0
0	24458	301.94396287068	1
0	24461	302.38481655799	0
0	24800	318.46696584173	1
0	24800	318.46696584173	0
0	25430	367.43976030401	1
0	25430	367.43976030401	0
0	26311	375.39964938674	1
0	26311	375.39964938674	0
0	27045	379.31715491754	1
0	27045	379.31715491754	0
0	27406	382.98684345594	1
0	27406	382.98684345594	0
0	28129	387.43830722239	1
0	28129	387.43830722239	0
0	28494	394.21377739315	1
0	28494	394.21377739315	0
0	28820	404.96029763691	1
0	28820	404.96029763691	0
0	29316	407.09180518351	1
0	29316	407.09180518351	0
0	29927	410.97661725709	1
0	29927	410.97661725709	0
0	30274	414.92411998437	1
0	30274	414.92411998437	0
0	30621	419.77900348683	1
0	30621	419.77900348683	0
0	30760	421.77805165305	1
0	30760	421.77805165305	0
0	31331	428.03741269806	1
0	31331	428.03741269806	0
0	31630	430.44973679652	1
0	31630	430.44973679652	0
0	32045	432.87529687141	1
0	32248	433.94095252612	0
0	33191	437.10417455533	1
0	33191	437.10417455533	0
0	33699	443.45322946506	1
0	33699	443.45322946506	0
0	34316	450.34481713027	1
0	34316	450.34481713027	0
0	34535	453.01219230439	1
0	34535	453.01219230439	0
0	35054	456.81372299957	1
0	35054	456.81372299957	0
0	35628	469.26220207564	1
0	35628	469.26220207564	0
0	35818	471.79604171964	1
0	35818	471.79604171964	0
0	36399	488.29138678929	1
0	36399	488.29138678929	0
0	36660	498.31504252488	1
0	36660	498.31504252488	0
0	36860	501.25100971408	1
0	36860	501.25100971408	0
0	37042	521.31954017318	1
0	37042	521.31954017318	0
0	37512	543.19589911452	1
0	37512	543.19589911452	0
0	37800	546.20082949737	1
0	37800	546.20082949737	0
0	38088	549.27942678056	1
0	38088	549.27942678056	0
0	38270	551.66400830663	1
0	38270	551.66400830663	0
0	38582	560.15487665383	1
0	38582	560.15487665383	0
0	38827	561.96601497954	1
0	38827	561.96601497954	0
0	39174	564.3229551325	1
0	39174	564.3229551325	0
0	39520	567.86544802289	1
0	39520	567.86544802289	0
0	40130	577.00487126426	1
0	40130	577.00487126426	0
0	40433	579.23394424163	1
0	40433	579.23394424163	0
0	40771	583.8924272353	1
0	40771	583.8924272353	0
0	41431	598.87381081642	1
0	41431	598.87381081642	0
0	41960	601.96790592033	1
0	41960	601.96790592033	0
0	42346	605.33729834872	1
0	42346	605.33729834872	0
0	42608	607.84661410492	1
0	42608	607.84661410492	0
0	43612	612.2706096341	1
0	43612	612.2706096341	0
0	44343	618.65004529228	1
0	44343	618.65004529228	0
0	45145	630.09518077591	1
0	45145	630.09518077591	0
0	46048	642.89882435412	1
0	46048	642.89882435412	0
0	46668	651.47974925812	1
0	46668	651.47974925812	0
0	47710	668.34546014373	1
0	47710	668.34546014373	0
0	47939	671.5152638554	1
0	47939	671.5152638554	0
0	48586	679.58454057292	1
0	48586	679.58454057292	0
0	48824	681.30709346432	1
0	48824	681.30709346432	0
0	49906	721.33757103826	1
0	49906	721.33757103826	0
0	50228	725.03755894302	1
0	50228	725.03755894302	0
0	50980	742.34648104396	1
0	50980	742.34648104396	0
0	51222	750.43342749594	1
0	51222	750.43342749594	0
0	51866	759.11626146765	1
0	51866	759.11626146765	0
0	52254	772.2930642149	1
0	52254	772.2930642149	0
0	52938	776.02435817799	1
0	52938	776.02435817799	0
0	53555	785.56185911805	1
0	53555	785.56185911805	0
0	53904	790.23478568303	1
0	53904	790.23478568303	0
0	54589	793.17930170114	1
0	54589	793.17930170114	0
0	55306	801.3455343492	1
0	55306	801.3455343492	0
0	55712	805.15143817742	1
0	55712	805.15143817742	0
0	56085	808.22557076122	1
0	56085	808.22557076122	0
0	56279	810.86469810331	1
0	56279	810.86469810331	0
0	56593	812.64574485019	1
0	56593	812.64574485019	0
0	57084	817.41442976088	1
0	57084	817.41442976088	0
0	57291	822.991773334	1
0	57291	822.991773334	0
0	57599	828.05109818587	1
0	57599	828.05109818587	0
0	57786	830.2449791094	1
0	57786	830.2449791094	0
0	58203	838.97861145884	1
0	58203	838.97861145884	0
0	58584	843.0363354708	1
0	58584	843.0363354708	0
0	58845	845.30753698142	1
0	58845	845.30753698142	0
0	59184	851.92627156075	1
0	59184	851.92627156075	0
0	59604	859.06431779144	1
0	59604	859.06431779144	0
0	60028	865.95298117286	1
0	60028	865.95298117286	0
0	60253	867.80455294069	1
0	60253	867.80455294069	0
0	60851	879.12366260372	1
0	60851	879.12366260372	0
0	61329	888.82381314556	1
0	61329	888.82381314556	0
0	62149	900.8825672381	1
0	62149	900.8825672381	0
0	62739	911.85374105226	1
0	62739	911.85374105226	0
0	63522	917.15165085568	1
0	63522	917.15165085568	0
0	63920	929.80462599972	1
0	63920	929.80462599972	0
0	64165	932.75940308671	1
0	64165	932.75940308671	0
0	64360	934.76760890038	1
0	64360	934.76760890038	0
0	65006	950.1093516706	1
0	65006	950.1093516706	0
0	65845	960.03877077374	1
0	65845	960.03877077374	0
0	66174	965.78201927749	1
0	66174	965.78201927749	0
0	67218	974.54052585271	1
0	67218	974.54052585271	0
0	67648	983.98445086679	1
0	67648	983.98445086679	0
0	68149	996.17164081188	1
0	68149	996.17164081188	0
0	68325	1000.12962353839	1
0	68325	1000.12962353839	0
0	68830	1013.74816274315	1
0	68830	1013.74816274315	0
0	70119	1021.34462625971	1
0	70119	1021.34462625971	0
0	70582	1026.24004834236	1
0	70582	1026.24004834236	0
0	70875	1037.65702572324	1
0	70875	1037.65702572324	0
0	71194	1040.85541057173	1
0	71211	1041.02227689403	0
0	71535	1044.16655894777	1
0	71535	1044.16655894777	0
0	71697	1047.54596231076	1
0	71697	1047.54596231076	0
0	73800	1078.97559036106	1
0	73800	1078.97559036106	0
0	74047	1081.77844614736	1
0	74047	1081.77844614736	0
0	74509	1094.67623351548	1
0	74509	1094.67623351548	0
0	74765	1096.88276320542	1
0	74846	1097.50555503378	0
0	75091	1101.65117402313	1
0	75091	1101.65117402313	0
0	75337	1103.61929336416	1
0	75370	1104.08331479992	0
0	75668	1111.45522801899	1
0	75668	1111.45522801899	0
0	76343	1123.55077127511	1
0	76343	1123.55077127511	0
0	76682	1126.01942796258	1
0	76710	1126.38859319014	0
0	77183	1138.25249750764	1
0	77183	1138.25249750764	0
0	77545	1143.58780192891	1
0	77545	1143.58780192891	0
0	77722	1146.78584763966	1
0	77722	1146.78584763966	0
0	77954	1148.76378405783	1
0	77954	1148.76378405783	0
0	78535	1156.76015025707	1
0	78535	1156.76015025707	0
0	78783	1158.50611280622	1
0	78788	1159.44377040813	0
0	79560	1167.07141267548	1
0	79560	1167.07141267548	0
0	79905	1178.37870306976	1
0	79905	1178.37870306976	0
0	80442	1194.76116354426	1
0	80442	1194.76116354426	0
0	81052	1198.96445323056	1
0	81173	1200.15275871114	0
0	81250	1201.15673572546	1
0	81250	1201.15673572546	0
0	81464	1204.41216491973	1
0	81464	1204.41216491973	0
0	82719	1229.76568419317	1
0	82719	1229.76568419317	0
0	83242	1236.67972411337	1
0	83242	1236.67972411337	0
0	83970	1241.01989037699	1
0	83970	1241.01989037699	0
0	84379	1250.97650687487	1
0	84379	1250.97650687487	0
0	84961	1261.56721701189	1
0	84961	1261.56721701189	0
0	85237	1266.56027017791	1
0	85237	1266.56027017791	0
0	85485	1272.60950928603	1
0	85485	1272.60950928603	0
0	85903	1274.36080492385	1
0	85903	1274.36080492385	0
0	86070	1276.39043592232	1
0	86070	1276.39043592232	0
0	86884	1287.10284174827	1
0	86884	1287.10284174827	0
0	87128	1292.38794806492	1
0	87128	1292.38794806492	0
0	87297	1294.72246237644	1
0	87297	1294.72246237644	0
0	88430	1305.59345641065	1
0	88430	1305.59345641065	0
0	89333	1319.2583229807	1
0	89333	1319.2583229807	0
0	89608	1322.71566998773	1
0	89608	1322.71566998773	0
0	89766	1324.80437445264	1
0	89766	1324.80437445264	0
0	89958	1329.18871410888	1
0	89958	1329.18871410888	0
0	90249	1333.89172916003	1
0	90249	1333.89172916003	0
0	91099	1345.85672530819	1
0	91099	1345.85672530819	0
0	91469	1350.35199469626	1
0	91469	1350.35199469626	0
0	91713	1353.93305636623	1
0	91713	1353.93305636623	0
0	91964	1356.73057352434	1
0	91964	1356.73057352434	0
0	92319	1362.27435984302	1
0	92319	1362.27435984302	0
0	92827	1374.2849536388	1
0	92827	1374.2849536388	0
0	93031	1377.45169477057	1
0	93031	1377.45169477057	0
0	93209	1381.64135357123	1
0	93209	1381.64135357123	0
0	93518	1388.03500840535	1
0	93518	1388.03500840535	0
0	94036	1400.37846244355	1
0	94036	1400.37846244355	0
0	94892	1414.31333353255	1
0	94892	1414.31333353255	0
0	95195	1426.68098414115	1
0	95195	1426.68098414115	0
0	95493	1429.85215282831	1
0	95493	1429.85215282831	0
0	95879	1434.46215748777	1
0	95879	1434.46215748777	0
0	96098	1437.32095157032	1
0	96098	1437.32095157032	0
0	96262	1440.80179628906	1
0	96262	1440.80179628906	0
0	96575	1443.46306286196	1
0	96575	1443.46306286196	0
0	96858	1446.51011809803	1
0	96858	1446.51011809803	0
0	97303	1453.31103347507	1
0	97303	1453.31103347507	0
0	97528	1455.18197501098	1
0	97528	1455.18197501098	0
0	97787	1459.78927697597	1
0	97787	1459.78927697597	0
0	98009	1461.67967081187	1
0	98009	1461.67967081187	0
0	98501	1465.66075255235	1
0	98501	1465.66075255235	0
0	98691	1469.20379432381	1
0	98691	1469.20379432381	0
0	98950	1471.49080170676	1
0	98950	1471.49080170676	0
0	99526	1488.9247982256	1
0	99526	1488.9247982256	0
0	99845	1492.68377299963	1
0	99845	1492.68377299963	0
0	100024	1494.84010008487	1
0	100024	1494.84010008487	0
0	100227	1498.18487396138	1
0	100227	1498.18487396138	0
0	100777	1502.78037715439	1
0	100777	1502.78037715439	0
0	101042	1506.12811395238	1
0	101042	1506.12811395238	0
0	102489	1527.25944664537	1
0	102489	1527.25944664537	0
0	103060	1535.15581576946	1
0	103060	1535.15581576946	0
0	103514	1540.05399930152	1
0	103514	1540.05399930152	0
0	104040	1547.135203007	1
0	104040	1547.135203007	0
0	104318	1555.41938314955	1
0	104318	1555.41938314955	0
0	104858	1562.96238266955	1
0	104858	1562.96238266955	0
0	105050	1567.93674665593	1
0	105050	1567.93674665593	0
0	105399	1575.26715323808	1
0	105399	1575.26715323808	0
0	105602	1577.99539135912	1
0	105602	1577.99539135912	0
0	105827	1587.50283023733	1
0	105827	1587.50283023733	0
0	106286	1595.80251147362	1
0	106286	1595.80251147362	0
0	106601	1605.31513972219	1
0	106601	1605.31513972219	0
0	106951	1609.08142867069	1
0	106951	1609.08142867069	0
0	107342	1615.52363352962	1
0	107342	1615.52363352962	0
0	107835	1617.70474884866	1
0	107835	1617.70474884866	0
0	108269	1624.90888293422	1
0	108269	1624.90888293422	0
0	109182	1636.93873033577	1
0	109182	1636.93873033577	0
0	109862	1643.6887149496	1
0	109862	1643.6887149496	0
0	110168	1648.10649485397	1
0	110168	1648.10649485397	0
0	111054	1667.00498127457	1
0	111054	1667.00498127457	0
0	111604	1673.24558379969	1
0	111630	1673.89714496037	0
0	111815	1676.61417344246	1
0	112055	1678.0615962107	0
0	112360	1679.72807258993	1
0	112476	1682.61855299584	0
0	113174	1699.15134789201	1
0	113174	1699.15134789201	0
0	113670	1703.07339134048	1
0	113670	1703.07339134048	0
0	114293	1711.84918750975	1
0	114293	1711.84918750975	0
0	114854	1717.98497816124	1
0	114854	1717.98497816124	0
0	115410	1729.26934722177	1
0	115410	1729.26934722177	0
0	115785	1737.3797061013	1
0	115785	1737.3797061013	0
0	116104	1739.8901398767	1
0	116104	1739.8901398767	0
0	116439	1744.55774943257	1
0	116439	1744.55774943257	0
0	116927	1750.21075512274	1
0	116927	1750.21075512274	0
0	117153	1764.06366247655	1
0	117153	1764.06366247655	0
0	117310	1770.2470880657	1
0	117310	1770.2470880657	0
0	117515	1772.58777569092	1
0	117519	1773.29118088045	0
0	117855	1777.06178510174	1
0	117855	1777.06178510174	0
0	118545	1789.64822214586	1
0	118545	1789.64822214586	0
0	118767	1791.92240774993	1
0	118883	1792.4289234278	0
0	119035	1794.01177978947	1
0	119035	1794.01177978947	0
0	119204	1796.02999666897	1
0	119204	1796.02999666897	0
0	120014	1811.98223809618	1
0	120014	1811.98223809618	0
0	120287	1814.3488543861	1
0	120287	1814.3488543861	0
0	120626	1817.80499442735	1
0	120626	1817.80499442735	0
0	121287	1827.12836548204	1
0	121287	1827.12836548204	0
0	121579	1836.08419045191	1
0	121579	1836.08419045191	0
0	121926	1840.31040995506	1
0	121926	1840.31040995506	0
0	122078	1843.41787019162	1
0	122078	1843.41787019162	0
0	122594	1845.36474827183	1
0	122594	1845.36474827183	0
0	123090	1850.63909001859	1
0	123090	1850.63909001859	0
0	123334	1854.46275576098	1
0	123334	1854.46275576098	0
0	124797	1883.765932827	1
0	124797	1883.765932827	0
0	125051	1886.31770643018	1
0	125051	1886.31770643018	0
0	125427	1890.44330191648	1
0	125427	1890.44330191648	0
0	125823	1892.34856132545	1
0	125823	1892.34856132545	0
0	126240	1898.76848586239	1
0	126240	1898.76848586239	0
0	127195	1911.62739790592	1
0	127195	1911.62739790592	0
0	127460	1919.46598228296	1
0	127460	1919.46598228296	0
0	127608	1927.51390881781	1
0	127608	1927.51390881781	0
0	128190	1936.06787157126	1
0	128190	1936.06787157126	0
0	128439	1938.42962557186	1
0	128439	1938.42962557186	0
0	128798	1945.32336364962	1
0	128798	1945.32336364962	0
0	129437	1953.95612397348	1
0	129437	1953.95612397348	0
0	129629	1956.17906601531	1
0	129629	1956.17906601531	0
0	129998	1961.18465802373	1
0	129998	1961.18465802373	0
0	130230	1964.1797415431	1
0	130230	1964.1797415431	0
0	131113	1970.74043137635	1
0	131113	1970.74043137635	0
0	131492	1984.46447563338	1
0	131492	1984.46447563338	0
0	131797	1992.26432050225	1
0	131797	1992.26432050225	0
0	131981	1995.67210962542	1
0	131981	1995.67210962542	0
0	132517	2001.14263301503	1
0	132517	2001.14263301503	0
0	133231	2008.85535826246	1
0	133231	2008.85535826246	0
0	133990	2018.89527068147	1
0	133990	2018.89527068147	0
0	134163	2024.83365913061	1
0	134163	2024.83365913061	0
0	134652	2028.50017362352	1
0	134652	2028.50017362352	0
0	134896	2032.97315557853	1
0	134896	2032.97315557853	0
0	136100	2057.89304635032	1
0	136100	2057.89304635032	0
0	136486	2063.55588774464	1
0	136486	2063.55588774464	0
0	136908	2069.22756472282	1
0	136908	2069.22756472282	0
0	137996	2079.79077538513	1
0	137996	2079.79077538513	0
0	138391	2085.87354030701	1
0	138391	2085.87354030701	0
0	139001	2101.4000448401	1
0	139001	2101.4000448401	0
0	139154	2103.63767133843	1
0	139154	2103.63767133843	0
0	139581	2107.67966855825	1
0	139581	2107.67966855825	0
0	140660	2125.23171409095	1
0	140660	2125.23171409095	0
0	141083	2131.57393567707	1
0	141083	2131.57393567707	0
0	141398	2137.07650029998	1
0	141398	2137.07650029998	0
0	141834	2139.42022078174	1
0	141834	2139.42022078174	0
0	142144	2147.34441384048	1
0	142144	2147.34441384048	0
0	142325	2149.57840313885	1
0	142325	2149.57840313885	0
0	142895	2162.57811409188	1
0	142895	2162.57811409188	0
0	143040	2165.90715780415	1
0	143040	2165.90715780415	0
0	143376	2179.88043670606	1
0	143376	2179.88043670606	0
0	143673	2181.7346239885	1
0	143673	2181.7346239885	0
0	143932	2184.26905671877	1
0	143932	2184.26905671877	0
0	144154	2186.70402455165	1
0	144154	2186.70402455165	0
0	144498	2189.47719462943	1
0	144498	2189.47719462943	0
0	145027	2191.87198942958	1
0	145107	2192.02579293089	0
0	145745	2196.41492447483	1
0	145745	2196.41492447483	0
0	145954	2200.68787576912	1
0	145954	2200.68787576912	0
0	146200	2204.85826259258	1
0	146200	2204.85826259258	0
0	146617	2207.76002112764	1
0	146617	2207.76002112764	0
0	147140	2220.72060956511	1
0	147140	2220.72060956511	0
0	147992	2243.51624798271	1
0	147992	2243.51624798271	0
0	148517	2248.07202244465	1
0	148517	2248.07202244465	0
0	148772	2250.20557267285	1
0	148772	2250.20557267285	0
0	148940	2253.14585957492	1
0	148940	2253.14585957492	0
0	149310	2255.11875803998	1
0	149310	2255.11875803998	0
0	149958	2265.28744822167	1
0	149958	2265.28744822167	0
0	150156	2267.32912876335	1
0	150156	2267.32912876335	0
0	150467	2272.75649351176	1
0	150467	2272.75649351176	0
0	150730	2276.17094371114	1
0	150765	2276.20811675193	0
0	151084	2281.77585373615	1
0	151084	2281.77585373615	0
0	151792	2295.26237635424	1
0	151792	2295.26237635424	0
0	152611	2310.70477385794	1
0	152611	2310.70477385794	0
0	152924	2318.3115418268	1
0	152924	2318.3115418268	0
0	153173	2322.84648238166	1
0	153173	2322.84648238166	0
0	153548	2324.96560342284	1
0	153629	2326.02930507889	0
0	154042	2332.48160942772	1
0	154042	2332.48160942772	0
0	154352	2337.96229420562	1
0	154352	2337.96229420562	0
0	154543	2342.70980898131	1
0	154543	2342.70980898131	0
0	154916	2352.40289914045	1
0	154916	2352.40289914045	0
0	155177	2357.36832978914	1
0	155177	2357.36832978914	0
0	156291	2372.46245099929	1
0	156291	2372.46245099929	0
0	156682	2374.2333706234	1
0	156682	2374.2333706234	0
0	156914	2377.20269988402	1
0	156914	2377.20269988402	0
0	157153	2379.85372211572	1
0	157254	2380.26390261492	0
0	158314	2397.99241593996	1
0	158314	2397.99241593996	0
0	158537	2401.57565239535	1
0	158537	2401.57565239535	0
0	158715	2404.39294289278	1
0	158715	2404.39294289278	0
0	159285	2425.2920322599	1
0	159285	2425.2920322599	0
0	159914	2437.10138242067	1
0	159914	2437.10138242067	0
0	160400	2442.32706934744	1
0	160400	2442.32706934744	0
0	160897	2445.73328432961	1
0	160897	2445.73328432961	0
0	161561	2449.05592226718	1
0	161679	2449.97917208842	0
0	162256	2458.00620499763	1
0	162256	2458.00620499763	0
0	162448	2460.07559486579	1
0	162448	2460.07559486579	0
0	162768	2463.61197813211	1
0	162768	2463.61197813211	0
0	162961	2465.70897634015	1
0	162961	2465.70897634015	0
0	163369	2472.92639677734	1
0	163369	2472.92639677734	0
0	163778	2477.71527607666	1
0	163778	2477.71527607666	0
0	164039	2481.04443349051	1
0	164039	2481.04443349051	0
0	164540	2484.0982136905	1
0	164540	2484.0982136905	0
0	164964	2492.22573922189	1
0	164964	2492.22573922189	0
0	166733	2524.90935758767	1
0	166733	2524.90935758767	0
0	167027	2530.19905621503	1
0	167027	2530.19905621503	0
0	167243	2532.24783491989	1
0	167243	2532.24783491989	0
0	168127	2546.8122313432	1
0	168127	2546.8122313432	0
0	168312	2549.86421624764	1
0	168312	2549.86421624764	0
0	168548	2552.92192432434	1
0	168548	2552.92192432434	0
0	168887	2554.80055430111	1
0	168887	2554.80055430111	0
0	169615	2565.93051256844	1
0	169615	2565.93051256844	0
0	170158	2580.46340737572	1
0	170158	2580.46340737572	0
0	170400	2584.45807390513	1
0	170400	2584.45807390513	0
0	170676	2588.79514878321	1
0	170676	2588.79514878321	0
0	170978	2598.84632447178	1
0	170978	2598.84632447178	0
0	171234	2602.79508142429	1
0	171234	2602.79508142429	0
0	172020	2616.74738326849	1
0	172020	2616.74738326849	0
0	172624	2627.17735784327	1
0	172624	2627.17735784327	0
0	173047	2629.3842114526	1
0	173047	2629.3842114526	0
0	174035	2634.35351631898	1
0	174035	2634.35351631898	0
0	174312	2637.16627286083	1
0	174312	2637.16627286083	0
0	174956	2648.07870385995	1
0	174956	2648.07870385995	0
0	175536	2655.55342369012	1
0	175536	2655.55342369012	0
0	176372	2665.99275481341	1
0	176372	2665.99275481341	0
0	176677	2668.9828678758	1
0	176677	2668.9828678758	0
0	177016	2672.27671564981	1
0	177016	2672.27671564981	0
0	177482	2676.26721232675	1
0	177671	2677.09245208071	0
0	177861	2680.91522596904	1
0	177861	2680.91522596904	0
0	178485	2701.76717315361	1
0	178485	2701.76717315361	0
0	178759	2705.8967156002	1
0	178759	2705.8967156002	0
0	178996	2707.68476402473	1
0	178996	2707.68476402473	0
0	179225	2716.70793787515	1
0	179225	2716.70793787515	0
0	179442	2718.75176453417	1
0	179442	2718.75176453417	0
0	180041	2727.93516899902	1
0	180041	2727.93516899902	0
0	180399	2740.8909297687	1
0	180399	2740.8909297687	0
0	180545	2745.15236705855	1
0	180545	2745.15236705855	0
0	181054	2752.16751450657	1
0	181054	2752.16751450657	0
0	181719	2756.94597094831	1
0	181719	2756.94597094831	0
0	182636	2780.80837866961	1
0	182636	2780.80837866961	0
0	183410	2793.35975033025	1
0	183410	2793.35975033025	0
0	183788	2798.31598329665	1
0	183788	2798.31598329665	0
0	184239	2805.09415624217	1
0	184239	2805.09415624217	0
0	184546	2810.05003524468	1
0	184546	2810.05003524468	0
0	185280	2817.0033320608	1
0	185280	2817.0033320608	0
0	186267	2830.51547665769	1
0	186267	2830.51547665769	0
0	187207	2843.76412832745	1
0	187207	2843.76412832745	0
0	187513	2845.59580152484	1
0	187513	2845.59580152484	0
0	187854	2853.17218610833	1
0	187854	2853.17218610833	0
0	188382	2859.85051732025	1
0	188469	2861.28157412071	0
0	189164	2869.10243937849	1
0	189164	2869.10243937849	0
0	189762	2877.60273676811	1
0	189762	2877.60273676811	0
0	190100	2881.53467278023	1
0	190100	2881.53467278023	0
0	190747	2889.53981610084	1
0	190747	2889.53981610084	0
0	191029	2891.25334988056	1
0	191038	2891.83934802771	0
0	191341	2899.09721582904	1
0	191341	2899.09721582904	0
0	191522	2901.38542463858	1
0	191522	2901.38542463858	0
0	192055	2910.58218264421	1
0	192055	2910.58218264421	0
0	192429	2914.32978974693	1
0	192429	2914.32978974693	0
0	192649	2917.2523584834	1
0	192649	2917.2523584834	0
0	192925	2921.29321726232	1
0	192925	2921.29321726232	0
0	193111	2932.58896453123	1
0	193111	2932.58896453123	0
0	193320	2936.63077389103	1
0	193320	2936.63077389103	0
0	193656	2942.59243031819	1
0	193656	2942.59243031819	0
0	193976	2946.89972395374	1
0	193976	2946.89972395374	0
0	194323	2954.66061779956	1
0	194323	2954.66061779956	0
0	194642	2962.15661718007	1
0	194642	2962.15661718007	0
0	195290	2981.19934948867	1
0	195290	2981.19934948867	0
0	195796	2985.69434376402	1
0	195796	2985.69434376402	0
0	196295	2990.3258755425	1
0	196295	2990.3258755425	0
0	196635	2996.57960030742	1
0	196635	2996.57960030742	0
0	197315	2999.81666091464	1
0	197315	2999.81666091464	0
0	198035	3008.43126024464	1
0	198035	3008.43126024464	0
0	198466	3016.07675126781	1
0	198466	3016.07675126781	0
0	199285	3025.04793771484	1
0	199285	3025.04793771484	0
0	201122	3051.56266171122	1
0	201122	3051.56266171122	0
0	201585	3055.48830505721	1
0	201585	3055.48830505721	0
0	202242	3066.16192044321	1
0	202242	3066.16192044321	0
0	202590	3070.46737375665	1
0	202590	3070.46737375665	0
0	203111	3075.50729018107	1
0	203111	3075.50729018107	0
0	203259	3077.93704796663	1
0	203259	3077.93704796663	0
0	203952	3089.90114958481	1
0	203952	3089.90114958481	0
0	204094	3091.87483662845	1
0	204094	3091.87483662845	0
0	204276	3093.6670929206	1
0	204276	3093.6670929206	0
0	204544	3095.62095880548	1
0	204544	3095.62095880548	0
0	204804	3104.96984259832	1
0	204804	3104.96984259832	0
0	205718	3130.53844411194	1
0	205718	3130.53844411194	0
0	205966	3136.21611912274	1
0	205966	3136.21611912274	0
0	206314	3147.74708373156	1
0	206314	3147.74708373156	0
0	206654	3159.20690712379	1
0	206654	3159.20690712379	0
0	207130	3163.15896277045	1
0	207130	3163.15896277045	0
0	207360	3166.97814631323	1
0	207360	3166.97814631323	0
0	207616	3170.26847764959	1
0	207616	3170.26847764959	0
0	208142	3174.05794084813	1
0	208142	3174.05794084813	0
0	208522	3177.42302889766	1
0	208522	3177.42302889766	0
0	209540	3188.46255292242	1
0	209540	3188.46255292242	0
0	210002	3190.83755935975	1
0	210002	3190.83755935975	0
0	210459	3194.7232654964	1
0	210459	3194.7232654964	0
0	211006	3209.88441481599	1
0	211006	3209.88441481599	0
0	211221	3211.97473838545	1
0	211221	3211.97473838545	0
0	211623	3215.49641451863	1
0	211623	3215.49641451863	0
0	211719	3217.16383193945	1
0	211719	3217.16383193945	0
0	212085	3220.06724454737	1
0	212085	3220.06724454737	0
0	212786	3232.47087324893	1
0	212786	3232.47087324893	0
0	213055	3236.05620708518	1
0	213055	3236.05620708518	0
0	213243	3239.73337547212	1
0	213243	3239.73337547212	0
0	213439	3241.49625532426	1
0	213539	3243.54574701348	0
0	213634	3243.7636851324	1
0	213638	3243.98115850507	0
0	213780	3250.25287217953	1
0	213780	3250.25287217953	0
0	214313	3259.99885917372	1
0	214313	3259.99885917372	0
0	214555	3262.08145245334	1
0	214555	3262.08145245334	0
0	214971	3265.70538591236	1
0	214971	3265.70538591236	0
0	215313	3272.17413111713	1
0	215313	3272.17413111713	0
0	215524	3275.01645539797	1
0	215524	3275.01645539797	0
0	215899	3281.04412364622	1
0	215899	3281.04412364622	0
0	216173	3283.49369006757	1
0	216173	3283.49369006757	0
0	216427	3288.26480254499	1
0	216427	3288.26480254499	0
0	217386	3299.56929229934	1
0	217386	3299.56929229934	0
0	217694	3318.76562774059	1
0	217694	3318.76562774059	0
0	218209	3325.72051400354	1
0	218209	3325.72051400354	0
0	218701	3337.42663134968	1
0	218701	3337.42663134968	0
0	219590	3353.71296260038	1
0	219590	3353.71296260038	0
0	220238	3359.0428484891	1
0	220238	3359.0428484891	0
0	220370	3360.73693229804	1
0	220370	3360.73693229804	0
0	220523	3362.57634664719	1
0	220568	3362.69391443433	0
0	220875	3368.39913633943	1
0	220875	3368.39913633943	0
0	221236	3375.06118954332	1
0	221236	3375.06118954332	0
0	221594	3380.59741499804	1
0	221594	3380.59741499804	0
0	222250	3386.85160261599	1
0	222250	3386.85160261599	0
0	222566	3392.06501876338	1
0	222566	3392.06501876338	0
0	223142	3401.06325598146	1
0	223142	3401.06325598146	0
0	224049	3408.91298273546	1
0	224049	3408.91298273546	0
0	224532	3412.43763313948	1
0	224532	3412.43763313948	0
0	225733	3426.60117375978	1
0	225733	3426.60117375978	0
0	225925	3432.33049968558	1
0	225925	3432.33049968558	0
0	226227	3439.29301426239	1
0	226227	3439.29301426239	0
0	226584	3444.51442828368	1
0	226584	3444.51442828368	0
0	226766	3446.82021194122	1
0	226766	3446.82021194122	0
0	227125	3452.72463228444	1
0	227125	3452.72463228444	0
0	227296	3458.12497810614	1
0	227296	3458.12497810614	0
0	227645	3461.89628380575	1
0	227645	3461.89628380575	0
0	227961	3467.65450473329	1
0	227961	3467.65450473329	0
0	228837	3472.52577631814	1
0	228837	3472.52577631814	0
0	229193	3480.16504189724	1
0	229193	3480.16504189724	0
0	229468	3484.4441592341	1
0	229468	3484.4441592341	0
0	230067	3498.38700297816	1
0	230067	3498.38700297816	0
0	230612	3506.49199020601	1
0	230612	3506.49199020601	0
0	230811	3514.79420755386	1
0	230811	3514.79420755386	0
0	231759	3532.91340646458	1
0	231759	3532.91340646458	0
0	232186	3537.06855525159	1
0	232186	3537.06855525159	0
0	232758	3541.09121937403	1
0	232758	3541.09121937403	0
0	233175	3549.50214085878	1
0	233175	3549.50214085878	0
0	233356	3552.03643324726	1
0	233359	3552.61315903417	0
0	234001	3579.55463291303	1
0	234001	3579.55463291303	0
0	234416	3583.25324382802	1
0	234416	3583.25324382802	0
0	234902	3587.78770506573	1
0	234902	3587.78770506573	0
1	11484	60.97988582979	1.71213072284
1	11645	66.65945883472	1.71213004991
1	11837	71.69073456098	1.71213012721
1	12696	180.18432849457	1.71213494798
1	13764	189.67154704063	1.71213070231
1	14394	194.05581425868	1.71213046742
1	14647	196.42202104026	1.71213065258
1	14996	198.72594540613	1.71213020973
1	17816	213.5928317239	1.71212977939
1	18746	221.4758241824	1.71213006652
1	19479	229.44155101729	1.71213002488
1	20407	235.07024020686	1.7121305981
1	20958	239.21469130126	1.71213040353
1	21307	242.15221537062	1.7121304072
1	22303	251.57694849953	1.71213042305
1	22553	254.30092573742	1.71213006687
1	23205	264.0546008148	1.71212976517
1	24230	299.95293395629	1.71213012807
1	24461	302.38481655799	2.1529877677
1	24800	318.46696584173	1.71213072284
1	26311	375.39964938674	1.71213020973
1	27045	379.31715491754	1.71213065258
1	28129	387.43830722239	1.71213019902
1	28494	394.21377739315	1.71213104038
1	28820	404.96029763691	1.71212977939
1	29316	407.09180518351	1.71212968839
1	29927	410.97661725709	1.71213134604
1	30274	414.92411998437	1.7121305844
1	30621	419.77900348683	1.71213120018
1	30760	421.77805165305	1.71213006652
1	31331	428.03741269806	1.71213344691
1	31630	430.44973679652	1.7121304072
1	32248	433.94095252612	2.77778605824
1	33191	437.10417455533	1.71213056202
1	33699	443.45322946506	1.71212976517
1	34316	450.34481713027	1.71213125216
1	34535	453.01219230439	1.71212961914
1	35054	456.81372299957	1.71213031428
1	35628	469.26220207564	1.71213006687
1	35818	471.79604171964	1.71213122897
1	36660	498.31504252488	1.71213012807
1	36860	501.25100971408	1.7121312042
1	37042	521.31954017318	1.71213072284
1	37512	543.19589911452	1.71213046742
1	37800	546.20082949737	1.71213162292
1	38088	549.27942678056	1.71213408039
1	38270	551.66400830663	1.71213167053
1	38582	560.15487665383	1.71213137673
1	38827	561.96601497954	1.71213019902
1	39174	564.3229551325	1.71213072465
1	39520	567.86544802289	1.71213104038
1	40130	577.00487126426	1.71213094956
1	40433	579.23394424163	1.71212968839
1	40771	583.8924272353	1.71212977939
1	41431	598.87381081642	1.71213006652
1	41960	601.96790592033	1.71213110629
1	42346	605.33729834872	1.71213040353
1	43612	612.2706096341	1.7121305844
1	44343	618.65004529228	1.71213004991
1	45145	630.09518077591	1.71212961914
1	46048	642.89882435412	1.71213002488
1	46668	651.47974925812	1.71213134604
1	47710	668.34546014373	1.71213122897
1	47939	671.5152638554	1.71213257087
1	48586	679.58454057292	1.7121312042
1	48824	681.30709346432	1.71213030765
1	49906	721.33757103826	1.71213157639
1	50228	725.03755894302	1.71213012807
1	50980	742.34648104396	1.71213070231
1	51222	750.43342749594	1.71213072465
1	51866	759.11626146765	1.71212977939
1	52254	772.2930642149	1.71213177296
1	52938	776.02435817799	1.71213019902
1	53555	785.56185911805	1.71213012721
1	53904	790.23478568303	1.71213094291
1	54589	793.17930170114	1.71213219239
1	55306	801.3455343492	1.71213004991
1	55712	805.15143817742	1.71213040353
1	56085	808.22557076122	1.7121305981
1	56593	812.64574485019	1.71213042305
1	57084	817.41442976088	1.7121304072
1	57291	822.991773334	1.71213031428
1	57599	828.05109818587	1.71213041777
1	57786	830.2449791094	1.71213040757
1	58203	838.97861145884	1.71212976517
1	58584	843.0363354708	1.71213110629
1	58845	845.30753698142	1.71213134604
1	59184	851.92627156075	1.7121305844
1	59604	859.06431779144	1.71213107772
1	60028	865.95298117286	1.7121312042
1	60253	867.80455294069	1.71213006687
1	60851	879.12366260372	1.71213082978
1	61329	888.82381314556	1.71212961914
1	62149	900.8825672381	1.71213046742
1	63522	917.15165085568	1.71213320631
1	63920	929.80462599972	1.71213104038
1	64360	934.76760890038	1.71213072465
1	65006	950.1093516706	1.71213019902
1	65845	960.03877077374	1.71213012721
1	67218	974.54052585271	1.71212968839
1	68149	996.17164081188	1.7121304072
1	68325	1000.12962353839	1.71213041777
1	68830	1013.74816274315	1.71213065258
1	70119	1021.34462625971	1.71213002488
1	70582	1026.24004834236	1.71213134604
1	70875	1037.65702572324	1.71213306602
1	71211	1041.02227689403	1.87899663658
1	71535	1044.16655894777	1.7121305981
1	71697	1047.54596231076	1.71212976517
1	73800	1078.97559036106	1.71213046742
1	74047	1081.77844614736	1.71212961914
1	74509	1094.67623351548	1.71213167053
1	74846	1097.50555503378	2.3349225512
1	75370	1104.08331479992	2.17615247614
1	75668	1111.45522801899	1.71212977939
1	76343	1123.55077127511	1.71213137673
1	76710	1126.38859319014	2.08129553521
1	77183	1138.25249750764	1.71213072465
1	77545	1143.58780192891	1.71213099225
1	77722	1146.78584763966	1.71213123829
1	77954	1148.76378405783	1.71213019902
1	78535	1156.76015025707	1.71213040353
1	78788	1159.44377040813	2.64979069537
1	79905	1178.37870306976	1.71213006652
1	80442	1194.76116354426	1.71213125216
1	81173	1200.15275871114	2.90043588815
1	81250	1201.15673572546	1.71213042305
1	81464	1204.41216491973	1.71213134604
1	82719	1229.76568419317	1.71213041777
1	83242	1236.67972411337	1.7121305981
1	83970	1241.01989037699	1.71213031428
1	84961	1261.56721701189	1.7121304072
1	85237	1266.56027017791	1.71213082978
1	85485	1272.60950928603	1.71213006687
1	85903	1274.36080492385	1.71213056202
1	86884	1287.10284174827	1.71213320631
1	87128	1292.38794806492	1.71213012807
1	87297	1294.72246237644	1.71213046742
1	88430	1305.59345641065	1.71213085403
1	89333	1319.2583229807	1.71213030765
1	89608	1322.71566998773	1.71213123829
1	89766	1324.80437445264	1.71213019902
1	89958	1329.18871410888	1.71213072465
1	90249	1333.89172916003	1.71213207066
1	91099	1345.85672530819	1.71212977939
1	91469	1350.35199469626	1.71213012721
1	91713	1353.93305636623	1.71212968839
1	91964	1356.73057352434	1.71213006652
1	92319	1362.27435984302	1.71213004991
1	92827	1374.2849536388	1.71213042305
1	93031	1377.45169477057	1.71213134604
1	93209	1381.64135357123	1.71213058946
1	93518	1388.03500840535	1.71213002488
1	94036	1400.37846244355	1.71213135209
1	94892	1414.31333353255	1.7121331021
1	95195	1426.68098414115	1.71212976517
1	95493	1429.85215282831	1.71213120018
1	95879	1434.46215748777	1.7121304072
1	96262	1440.80179628906	1.71213082978
1	96858	1446.51011809803	1.71213056202
1	97303	1453.31103347507	1.71213162929
1	97528	1455.18197501098	1.71213006687
1	97787	1459.78927697597	1.71212961914
1	98009	1461.67967081187	1.71213264589
1	98501	1465.66075255235	1.7121312042
1	98691	1469.20379432381	1.71213157639
1	98950	1471.49080170676	1.71213107772
1	99526	1488.9247982256	1.71213070231
1	99845	1492.68377299963	1.71213012807
1	100024	1494.84010008487	1.71213085403
1	100227	1498.18487396138	1.71213099225
1	100777	1502.78037715439	1.71213046742
1	101042	1506.12811395238	1.71213072465
1	102489	1527.25944664537	1.71212968839
1	103060	1535.15581576946	1.71213384317
1	103514	1540.05399930152	1.71213006652
1	104040	1547.135203007	1.71213042305
1	104318	1555.41938314955	1.71213058946
1	104858	1562.96238266955	1.71213019902
1	105050	1567.93674665593	1.71213002488
1	105399	1575.26715323808	1.71213030765
1	105602	1577.99539135912	1.71213125216
1	105827	1587.50283023733	1.71213065258
1	106286	1595.80251147362	1.71213164008
1	106601	1605.31513972219	1.71213004991
1	106951	1609.08142867069	1.7121305981
1	107342	1615.52363352962	1.71213041777
1	107835	1617.70474884866	1.71212976517
1	108269	1624.90888293422	1.7121304072
1	109182	1636.93873033577	1.71213031428
1	109862	1643.6887149496	1.71213107772
1	110168	1648.10649485397	1.71213020973
1	111054	1667.00498127457	1.71213212314
1	111630	1673.89714496037	2.36369128875
1	112055	1678.0615962107	3.15955439116
1	112476	1682.61855299584	4.60261125994
1	113174	1699.15134789201	1.71213046742
1	113670	1703.07339134048	1.71212968839
1	114293	1711.84918750975	1.71213258088
1	114854	1717.98497816124	1.71213012721
1	115410	1729.26934722177	1.71212977939
1	116104	1739.8901398767	1.71213042305
1	116439	1744.55774943257	1.71213006687
1	116927	1750.21075512274	1.71213019902
1	117153	1764.06366247655	1.71213058946
1	117310	1770.2470880657	1.71213104038
1	117519	1773.29118088045	2.41553745242
1	117855	1777.06178510174	1.71213164008
1	118545	1789.64822214586	1.71213322684
1	118883	1792.4289234278	2.21864570275
1	120014	1811.98223809618	1.71213041777
1	120287	1814.3488543861	1.71213040757
1	120626	1817.80499442735	1.71213040353
1	121287	1827.12836548204	1.71212976517
1	121579	1836.08419045191	1.71213031428
1	121926	1840.31040995506	1.7121305844
1	122078	1843.41787019162	1.7121304072
1	122594	1845.36474827183	1.71213099225
1	123090	1850.63909001859	1.71213012807
1	123334	1854.46275576098	1.71212961914
1	124797	1883.765932827	1.71213082978
1	125051	1886.31770643018	1.71213072465
1	125427	1890.44330191648	1.71213133917
1	125823	1892.34856132545	1.71213012721
1	126240	1898.76848586239	1.71212968839
1	127195	1911.62739790592	1.71213228339
1	127460	1919.46598228296	1.71213204425
1	127608	1927.51390881781	1.71213006687
1	128190	1936.06787157126	1.71213030765
1	128439	1938.42962557186	1.71213046742
1	128798	1945.32336364962	1.71213042305
1	129437	1953.95612397348	1.71213019902
1	129629	1956.17906601531	1.71213104038
1	129998	1961.18465802373	1.71213125216
1	130230	1964.1797415431	1.71213137673
1	131113	1970.74043137635	1.71213002488
1	131492	1984.46447563338	1.71213135209
1	131797	1992.26432050225	1.71213006652
1	131981	1995.67210962542	1.71213041777
1	132517	2001.14263301503	1.71213107772
1	133231	2008.85535826246	1.71213004991
1	133990	2018.89527068147	1.71213031428
1	134163	2024.83365913061	1.71213056202
1	134652	2028.50017362352	1.71213012807
1	136100	2057.89304635032	1.7121305844
1	136486	2063.55588774464	1.71212961914
1	136908	2069.22756472282	1.71213020973
1	137996	2079.79077538513	1.71213070231
1	138391	2085.87354030701	1.71212968839
1	139001	2101.4000448401	1.71213094291
1	139154	2103.63767133843	1.71213006687
1	139581	2107.67966855825	1.71213030765
1	140660	2125.23171409095	1.71213094956
1	141083	2131.57393567707	1.71213216225
1	141398	2137.07650029998	1.71213104038
1	141834	2139.42022078174	1.71213072284
1	142144	2147.34441384048	1.71213019902
1	142325	2149.57840313885	1.71213065258
1	142895	2162.57811409188	1.71213385609
1	143040	2165.90715780415	1.71213002488
1	143376	2179.88043670606	1.71213041777
1	143673	2181.7346239885	1.71213206916
1	143932	2184.26905671877	1.71213125216
1	144154	2186.70402455165	1.71213040353
1	144498	2189.47719462943	1.71213040757
1	145107	2192.02579293089	1.86593470551
1	145745	2196.41492447483	1.71213056202
1	145954	2200.68787576912	1.71213099225
1	146200	2204.85826259258	1.71213012807
1	146617	2207.76002112764	1.71213031428
1	147140	2220.72060956511	1.71213181948
1	147992	2243.51624798271	1.71212961914
1	148517	2248.07202244465	1.71213123829
1	148772	2250.20557267285	1.71213122897
1	148940	2253.14585957492	1.71212976517
1	149310	2255.11875803998	1.71213070231
1	149958	2265.28744822167	1.71213012721
1	150156	2267.32912876335	1.7121305844
1	150467	2272.75649351176	1.71212968839
1	150765	2276.20811675193	1.74930310766
1	151084	2281.77585373615	1.71213030765
1	151792	2295.26237635424	1.71213335803
1	152611	2310.70477385794	1.71213120018
1	152924	2318.3115418268	1.71213104038
1	153173	2322.84648238166	1.71213065258
1	153629	2326.02930507889	2.77583328534
1	154042	2332.48160942772	1.7121305981
1	154352	2337.96229420562	1.71213019902
1	154543	2342.70980898131	1.71213002488
1	154916	2352.40289914045	1.71213133917
1	155177	2357.36832978914	1.71213125216
1	156291	2372.46245099929	1.71213135209
1	156682	2374.2333706234	1.71213004991
1	156914	2377.20269988402	1.7121312042
1	157254	2380.26390261492	2.12231062727
1	158314	2397.99241593996	1.71213107772
1	158537	2401.57565239535	1.71213040757
1	158715	2404.39294289278	1.71212977939
1	159285	2425.2920322599	1.7121329112
1	159914	2437.10138242067	1.71213056202
1	160897	2445.73328432961	1.71212976517
1	161679	2449.97917208842	2.63537988811
1	162448	2460.07559486579	1.71213162292
1	162768	2463.61197813211	1.71213012721
1	162961	2465.70897634015	1.71213094291
1	163369	2472.92639677734	1.71213030765
1	163778	2477.71527607666	1.71213072465
1	164039	2481.04443349051	1.71212968839
1	164540	2484.0982136905	1.71213085403
1	164964	2492.22573922189	1.71213104038
1	166733	2524.90935758767	1.71213002488
1	167027	2530.19905621503	1.71213125216
1	167243	2532.24783491989	1.71213019902
1	168127	2546.8122313432	1.71213290753
1	168312	2549.86421624764	1.71213110629
1	168548	2552.92192432434	1.71213004991
1	168887	2554.80055430111	1.71213012807
1	169615	2565.93051256844	1.71213041777
1	170158	2580.46340737572	1.71213164008
1	170400	2584.45807390513	1.71213031428
1	170676	2588.79514878321	1.71213107772
1	170978	2598.84632447178	1.71213006652
1	171234	2602.79508142429	1.71212977939
1	172020	2616.74738326849	1.71213285732
1	172624	2627.17735784327	1.71212961914
1	173047	2629.3842114526	1.71213006687
1	174035	2634.35351631898	1.71213137673
1	174312	2637.16627286083	1.71213012721
1	174956	2648.07870385995	1.71212976517
1	175536	2655.55342369012	1.71212968839
1	176372	2665.99275481341	1.71213122897
1	176677	2668.9828678758	1.71213354438
1	177016	2672.27671564981	1.71213094956
1	177671	2677.09245208071	2.53737022138
1	177861	2680.91522596904	1.71213072284
1	178485	2701.76717315361	1.71213002488
1	178759	2705.8967156002	1.71213042305
1	178996	2707.68476402473	1.71213065258
1	179225	2716.70793787515	1.7121315703
1	179442	2718.75176453417	1.71213019902
1	180399	2740.8909297687	1.71213133917
1	180545	2745.15236705855	1.71213041777
1	181054	2752.16751450657	1.71213004991
1	181719	2756.94597094831	1.71213031428
1	182636	2780.80837866961	1.71213107772
1	183410	2793.35975033025	1.71213257052
1	183788	2798.31598329665	1.71213020973
1	184239	2805.09415624217	1.71213070231
1	184546	2810.05003524468	1.71212977939
1	185280	2817.0033320608	1.71212961914
1	187207	2843.76412832745	1.71213167053
1	187513	2845.59580152484	1.71213137673
1	187854	2853.17218610833	1.71213072465
1	188469	2861.28157412071	3.14318738486
1	189164	2869.10243937849	1.71213006687
1	189762	2877.60273676811	1.71213042305
1	190100	2881.53467278023	1.71213122897
1	190747	2889.53981610084	1.71213104038
1	191038	2891.83934802771	2.29812886999
1	191341	2899.09721582904	1.71213019902
1	191522	2901.38542463858	1.71212976517
1	192055	2910.58218264421	1.71213125216
1	192429	2914.32978974693	1.71213384317
1	192649	2917.2523584834	1.71213040353
1	192925	2921.29321726232	1.71213046742
1	193320	2936.63077389103	1.71213134604
1	193656	2942.59243031819	1.71213110629
1	193976	2946.89972395374	1.71213012807
1	194323	2954.66061779956	1.71213031428
1	194642	2962.15661718007	1.71213040757
1	195290	2981.19934948867	1.71213006652
1	195796	2985.69434376402	1.7121304072
1	196635	2996.57960030742	1.71212977939
1	197315	2999.81666091464	1.71213099225
1	198035	3008.43126024464	1.71212961914
1	198466	3016.07675126781	1.71212968839
1	199285	3025.04793771484	1.71213072465
1	201122	3051.56266171122	1.71213252888
1	201585	3055.48830505721	1.71213042305
1	202242	3066.16192044321	1.71213006687
1	202590	3070.46737375665	1.71213085403
1	203111	3075.50729018107	1.71213072284
1	203952	3089.90114958481	1.71213264983
1	204094	3091.87483662845	1.71213019902
1	204804	3104.96984259832	1.71213040353
1	205718	3130.53844411194	1.71213012807
1	205966	3136.21611912274	1.71213040757
1	206314	3147.74708373156	1.71213004991
1	206654	3159.20690712379	1.71213056202
1	207130	3163.15896277045	1.71213041777
1	207360	3166.97814631323	1.71213110629
1	207616	3170.26847764959	1.71213058946
1	208142	3174.05794084813	1.7121337082
1	208522	3177.42302889766	1.71212977939
1	209540	3188.46255292242	1.71213070231
1	210002	3190.83755935975	1.7121304072
1	210459	3194.7232654964	1.71213181948
1	211006	3209.88441481599	1.71212968839
1	211221	3211.97473838545	1.7121305844
1	211623	3215.49641451863	1.71213082978
1	211719	3217.16383193945	1.71213137673
1	212085	3220.06724454737	1.71213157639
1	212786	3232.47087324893	1.71213006652
1	213055	3236.05620708518	1.71213002488
1	213243	3239.73337547212	1.71213006687
1	213539	3243.54574701348	3.76162292751
1	213638	3243.98115850507	1.92960432223
1	213780	3250.25287217953	1.71212961914
1	214313	3259.99885917372	1.71213133917
1	214555	3262.08145245334	1.71213122897
1	214971	3265.70538591236	1.71213030765
1	215313	3272.17413111713	1.71213046742
1	215524	3275.01645539797	1.71213162929
1	215899	3281.04412364622	1.71213040353
1	216173	3283.49369006757	1.71213085403
1	216427	3288.26480254499	1.71212976517
1	217386	3299.56929229934	1.71213385004
1	217694	3318.76562774059	1.71213019902
1	218209	3325.72051400354	1.71213012807
1	218701	3337.42663134968	1.71213104038
1	219590	3353.71296260038	1.71213040757
1	220238	3359.0428484891	1.71213020973
1	220875	3368.39913633943	1.7121304072
1	221236	3375.06118954332	1.71213012721
1	222566	3392.06501876338	1.71213137673
1	223142	3401.06325598146	1.71212968839
1	224532	3412.43763313948	1.71213006687
1	225733	3426.60117375978	1.71213212314
1	225925	3432.33049968558	1.71213110629
1	226227	3439.29301426239	1.71213002488
1	226584	3444.51442828368	1.71213030765
1	226766	3446.82021194122	1.71213122897
1	227125	3452.72463228444	1.71213162929
1	227296	3458.12497810614	1.71213123829
1	227645	3461.89628380575	1.71213264983
1	227961	3467.65450473329	1.71213004991
1	228837	3472.52577631814	1.71212976517
1	229193	3480.16504189724	1.71213065258
1	230067	3498.38700297816	1.71213120018
1	230612	3506.49199020601	1.71213019902
1	230811	3514.79420755386	1.71213012807
1	231759	3532.91340646458	1.71213040757
1	232186	3537.06855525159	1.71213020973
1	232758	3541.09121937403	1.71212977939
1	233175	3549.50214085878	1.71213322865
1	233359	3552.61315903417	2.28885742699
1	234416	3583.25324382802	1.71213012721
1	234902	3587.78770506573	1.71213006687
2	11484	60.97988582979	1.71213072284
2	11645	66.65945883472	1.71213004991
2	11837	71.69073456098	1.71213012721
2	12696	180.18432849457	1.71213494798
2	13764	189.67154704063	1.71213070231
2	14394	194.05581425868	1.71213046742
2	14647	196.42202104026	1.71213065258
2	14996	198.72594540613	1.71213020973
2	17816	213.5928317239	1.71212977939
2	18746	221.4758241824	1.71213006652
2	19479	229.44155101729	1.71213002488
2	20407	235.07024020686	1.7121305981
2	20958	239.21469130126	1.71213040353
2	21307	242.15221537062	1.7121304072
2	22303	251.57694849953	1.71213042305
2	22553	254.30092573742	1.71213006687
2	23205	264.0546008148	1.71212976517
2	24230	299.95293395629	1.71213012807
2	24461	302.38481655799	2.1529877677
2	24800	318.46696584173	1.71213072284
2	26311	375.39964938674	1.71213020973
2	27045	379.31715491754	1.71213065258
2	28129	387.43830722239	1.71213019902
2	28494	394.21377739315	1.71213104038
2	28820	404.96029763691	1.71212977939
2	29316	407.09180518351	1.71212968839
2	29927	410.97661725709	1.71213134604
2	30274	414.92411998437	1.7121305844
2	30621	419.77900348683	1.71213120018
2	30760	421.77805165305	1.71213006652
2	31331	428.03741269806	1.71213344691
2	31630	430.44973679652	1.7121304072
2	32248	433.94095252612	2.77778605824
2	33191	437.10417455533	1.71213056202
2	33699	443.45322946506	1.71212976517
2	34316	450.34481713027	1.71213125216
2	34535	453.01219230439	1.71212961914
2	35054	456.81372299957	1.71213031428
2	35628	469.26220207564	1.71213006687
2	35818	471.79604171964	1.71213122897
2	36660	498.31504252488	1.71213012807
2	36860	501.25100971408	1.7121312042
2	37042	521.31954017318	1.71213072284
2	37512	543.19589911452	1.71213046742
2	37800	546.20082949737	1.71213162292
2	38088	549.27942678056	1.71213408039
2	38270	551.66400830663	1.71213167053
2	38582	560.15487665383	1.71213137673
2	38827	561.96601497954	1.71213019902
2	39174	564.3229551325	1.71213072465
2	39520	567.86544802289	1.71213104038
2	40130	577.00487126426	1.71213094956
2	40433	579.23394424163	1.71212968839
2	40771	583.8924272353	1.71212977939
2	41431	598.87381081642	1.71213006652
2	41960	601.96790592033	1.71213110629
2	42346	605.33729834872	1.71213040353
2	43612	612.2706096341	1.7121305844
2	44343	618.65004529228	1.71213004991
2	45145	630.09518077591	1.71212961914
2	46048	642.89882435412	1.71213002488
2	46668	651.47974925812	1.71213134604
2	47710	668.34546014373	1.71213122897
2	47939	671.5152638554	1.71213257087
2	48586	679.58454057292	1.7121312042
2	48824	681.30709346432	1.71213030765
2	49906	721.33757103826	1.71213157639
2	50228	725.03755894302	1.71213012807
2	50980	742.34648104396	1.71213070231
2	51222	750.43342749594	1.71213072465
2	51866	759.11626146765	1.71212977939
2	52254	772.2930642149	1.71213177296
2	52938	776.02435817799	1.71213019902
2	53555	785.56185911805	1.71213012721
2	53904	790.23478568303	1.71213094291
2	54589	793.17930170114	1.71213219239
2	55306	801.3455343492	1.71213004991
2	55712	805.15143817742	1.71213040353
2	56085	808.22557076122	1.7121305981
2	56593	812.64574485019	1.71213042305
2	57084	817.41442976088	1.7121304072
2	57291	822.991773334	1.71213031428
2	57599	828.05109818587	1.71213041777
2	57786	830.2449791094	1.71213040757
2	58203	838.97861145884	1.71212976517
2	58584	843.0363354708	1.71213110629
2	58845	845.30753698142	1.71213134604
2	59184	851.92627156075	1.7121305844
2	59604	859.06431779144	1.71213107772
2	60028	865.95298117286	1.7121312042
2	60253	867.80455294069	1.71213006687
2	60851	879.12366260372	1.71213082978
2	61329	888.82381314556	1.71212961914
2	62149	900.8825672381	1.71213046742
2	63522	917.15165085568	1.71213320631
2	63920	929.80462599972	1.71213104038
2	64360	934.76760890038	1.71213072465
2	65006	950.1093516706	1.71213019902
2	65845	960.03877077374	1.71213012721
2	67218	974.54052585271	1.71212968839
2	68149	996.17164081188	1.7121304072
2	68325	1000.12962353839	1.71213041777
2	68830	1013.74816274315	1.71213065258
2	70119	1021.34462625971	1.71213002488
2	70582	1026.24004834236	1.71213134604
2	70875	1037.65702572324	1.71213306602
2	71211	1041.02227689403	1.87899663658
2	71535	1044.16655894777	1.7121305981
2	71697	1047.54596231076	1.71212976517
2	73800	1078.97559036106	1.71213046742
2	74047	1081.77844614736	1.71212961914
2	74509	1094.67623351548	1.71213167053
2	74846	1097.50555503378	2.3349225512
2	75370	1104.08331479992	2.17615247614
2	75668	1111.45522801899	1.71212977939
2	76343	1123.55077127511	1.71213137673
2	76710	1126.38859319014	2.08129553521
2	77183	1138.25249750764	1.71213072465
2	77545	1143.58780192891	1.71213099225
2	77722	1146.78584763966	1.71213123829
2	77954	1148.76378405783	1.71213019902
2	78535	1156.76015025707	1.71213040353
2	78788	1159.44377040813	2.64979069537
2	79905	1178.37870306976	1.71213006652
2	80442	1194.76116354426	1.71213125216
2	81173	1200.15275871114	2.90043588815
2	81250	1201.15673572546	1.71213042305
2	81464	1204.41216491973	1.71213134604
2	82719	1229.76568419317	1.71213041777
2	83242	1236.67972411337	1.7121305981
2	83970	1241.01989037699	1.71213031428
2	84961	1261.56721701189	1.7121304072
2	85237	1266.56027017791	1.71213082978
2	85485	1272.60950928603	1.71213006687
2	85903	1274.36080492385	1.71213056202
2	86884	1287.10284174827	1.71213320631
2	87128	1292.38794806492	1.71213012807
2	87297	1294.72246237644	1.71213046742
2	88430	1305.59345641065	1.71213085403
2	89333	1319.2583229807	1.71213030765
2	89608	1322.71566998773	1.71213123829
2	89766	1324.80437445264	1.71213019902
2	89958	1329.18871410888	1.71213072465
2	90249	1333.89172916003	1.71213207066
2	91099	1345.85672530819	1.71212977939
2	91469	1350.35199469626	1.71213012721
2	91713	1353.93305636623	1.71212968839
2	91964	1356.73057352434	1.71213006652
2	92319	1362.27435984302	1.71213004991
2	92827	1374.2849536388	1.71213042305
2	93031	1377.45169477057	1.71213134604
2	93209	1381.64135357123	1.71213058946
2	93518	1388.03500840535	1.71213002488
2	94036	1400.37846244355	1.71213135209
2	94892	1414.31333353255	1.7121331021
2	95195	1426.68098414115	1.71212976517
2	95493	1429.85215282831	1.71213120018
2	95879	1434.46215748777	1.7121304072
2	96262	1440.80179628906	1.71213082978
2	96858	1446.51011809803	1.71213056202
2	97303	1453.31103347507	1.71213162929
2	97528	1455.18197501098	1.71213006687
2	97787	1459.78927697597	1.71212961914
2	98009	1461.67967081187	1.71213264589
2	98501	1465.66075255235	1.7121312042
2	98691	1469.20379432381	1.71213157639
2	98950	1471.49080170676	1.71213107772
2	99526	1488.9247982256	1.71213070231
2	99845	1492.68377299963	1.71213012807
2	100024	1494.84010008487	1.71213085403
2	100227	1498.18487396138	1.71213099225
2	100777	1502.78037715439	1.71213046742
2	101042	1506.12811395238	1.71213072465
2	102489	1527.25944664537	1.71212968839
2	103060	1535.15581576946	1.71213384317
2	103514	1540.05399930152	1.71213006652
2	104040	1547.135203007	1.71213042305
2	104318	1555.41938314955	1.71213058946
2	104858	1562.96238266955	1.71213019902
2	105050	1567.93674665593	1.71213002488
2	105399	1575.26715323808	1.71213030765
2	105602	1577.99539135912	1.71213125216
2	105827	1587.50283023733	1.71213065258
2	106286	1595.80251147362	1.71213164008
2	106601	1605.31513972219	1.71213004991
2	106951	1609.08142867069	1.7121305981
2	107342	1615.52363352962	1.71213041777
2	107835	1617.70474884866	1.71212976517
2	108269	1624.90888293422	1.7121304072
2	109182	1636.93873033577	1.71213031428
2	109862	1643.6887149496	1.71213107772
2	110168	1648.10649485397	1.71213020973
2	111054	1667.00498127457	1.71213212314
2	111630	1673.89714496037	2.36369128875
2	112055	1678.0615962107	3.15955439116
2	112476	1682.61855299584	4.60261125994
2	113174	1699.15134789201	1.71213046742
2	113670	1703.07339134048	1.71212968839
2	114293	1711.84918750975	1.71213258088
2	114854	1717.98497816124	1.71213012721
2	115410	1729.26934722177	1.71212977939
2	116104	1739.8901398767	1.71213042305
2	116439	1744.55774943257	1.71213006687
2	116927	1750.21075512274	1.71213019902
2	117153	1764.06366247655	1.71213058946
2	117310	1770.2470880657	1.71213104038
2	117519	1773.29118088045	2.41553745242
2	117855	1777.06178510174	1.71213164008
2	118545	1789.64822214586	1.71213322684
2	118883	1792.4289234278	2.21864570275
2	120014	1811.98223809618	1.71213041777
2	120287	1814.3488543861	1.71213040757
2	120626	1817.80499442735	1.71213040353
2	121287	1827.12836548204	1.71212976517
2	121579	1836.08419045191	1.71213031428
2	121926	1840.31040995506	1.7121305844
2	122078	1843.41787019162	1.7121304072
2	122594	1845.36474827183	1.71213099225
2	123090	1850.63909001859	1.71213012807
2	123334	1854.46275576098	1.71212961914
2	124797	1883.765932827	1.71213082978
2	125051	1886.31770643018	1.71213072465
2	125427	1890.44330191648	1.71213133917
2	125823	1892.34856132545	1.71213012721
2	126240	1898.76848586239	1.71212968839
2	127195	1911.62739790592	1.71213228339
2	127460	1919.46598228296	1.71213204425
2	127608	1927.51390881781	1.71213006687
2	128190	1936.06787157126	1.71213030765
2	128439	1938.42962557186	1.71213046742
2	128798	1945.32336364962	1.71213042305
2	129437	1953.95612397348	1.71213019902
2	129629	1956.17906601531	1.71213104038
2	129998	1961.18465802373	1.71213125216
2	130230	1964.1797415431	1.71213137673
2	131113	1970.74043137635	1.71213002488
2	131492	1984.46447563338	1.71213135209
2	131797	1992.26432050225	1.71213006652
2	131981	1995.67210962542	1.71213041777
2	132517	2001.14263301503	1.71213107772
2	133231	2008.85535826246	1.71213004991
2	133990	2018.89527068147	1.71213031428
2	134163	2024.83365913061	1.71213056202
2	134652	2028.50017362352	1.71213012807
2	136100	2057.89304635032	1.7121305844
2	136486	2063.55588774464	1.71212961914
2	136908	2069.22756472282	1.71213020973
2	137996	2079.79077538513	1.71213070231
2	138391	2085.87354030701	1.71212968839
2	139001	2101.4000448401	1.71213094291
2	139154	2103.63767133843	1.71213006687
2	139581	2107.67966855825	1.71213030765
2	140660	2125.23171409095	1.71213094956
2	141083	2131.57393567707	1.71213216225
2	141398	2137.07650029998	1.71213104038
2	141834	2139.42022078174	1.71213072284
2	142144	2147.34441384048	1.71213019902
2	142325	2149.57840313885	1.71213065258
2	142895	2162.57811409188	1.71213385609
2	143040	2165.90715780415	1.71213002488
2	143376	2179.88043670606	1.71213041777
2	143673	2181.7346239885	1.71213206916
2	143932	2184.26905671877	1.71213125216
2	144154	2186.70402455165	1.71213040353
2	144498	2189.47719462943	1.71213040757
2	145107	2192.02579293089	1.86593470551
2	145745	2196.41492447483	1.71213056202
2	145954	2200.68787576912	1.71213099225
2	146200	2204.85826259258	1.71213012807
2	146617	2207.76002112764	1.71213031428
2	147140	2220.72060956511	1.71213181948
2	147992	2243.51624798271	1.71212961914
2	148517	2248.07202244465	1.71213123829
2	148772	2250.20557267285	1.71213122897
2	148940	2253.14585957492	1.71212976517
2	149310	2255.11875803998	1.71213070231
2	149958	2265.28744822167	1.71213012721
2	150156	2267.32912876335	1.7121305844
2	150467	2272.75649351176	1.71212968839
2	150765	2276.20811675193	1.74930310766
2	151084	2281.77585373615	1.71213030765
2	151792	2295.26237635424	1.71213335803
2	152611	2310.70477385794	1.71213120018
2	152924	2318.3115418268	1.71213104038
2	153173	2322.84648238166	1.71213065258
2	153629	2326.02930507889	2.77583328534
2	154042	2332.48160942772	1.7121305981
2	154352	2337.96229420562	1.71213019902
2	154543	2342.70980898131	1.71213002488
2	154916	2352.40289914045	1.71213133917
2	155177	2357.36832978914	1.71213125216
2	156291	2372.46245099929	1.71213135209
2	156682	2374.2333706234	1.71213004991
2	156914	2377.20269988402	1.7121312042
2	157254	2380.26390261492	2.12231062727
2	158314	2397.99241593996	1.71213107772
2	158537	2401.57565239535	1.71213040757
2	158715	2404.39294289278	1.71212977939
2	159285	2425.2920322599	1.7121329112
2	159914	2437.10138242067	1.71213056202
2	160897	2445.73328432961	1.71212976517
2	161679	2449.97917208842	2.63537988811
2	162448	2460.07559486579	1.71213162292
2	162768	2463.61197813211	1.71213012721
2	162961	2465.70897634015	1.71213094291
[...]
53	78578	1156.79397971276	210.0375216996
53	93039	1379.92922298177	180.96150442903
53	104073	1553.70725256009	1462.4574564322
53	116986	1762.35153188709	615.09554518636
53	127963	1935.02347961156	1392.0591862711
53	144360	2189.07624139872	1873.2398283725
53	156125	2372.24204960091	579.0136330335
53	168737	2554.13912874281	266.72814612562
53	182888	2786.78956594768	716.55067803699
53	196680	2996.6264698367	566.39787302506
53	207367	3168.55634706013	446.94661525039
53	219055	3346.33291582049	742.97508610863
53	232821	3547.03401366541	736.67198469092
54	19520	230.21681522738	987.77060608826
54	32647	436.03321304309	639.67459574331
54	42894	609.93102192824	1095.404170303
54	53580	786.90434806426	266.39854358455
54	66380	970.58673899257	42.925693086625
54	77820	1147.70154599987	586.14868471175
54	91573	1352.98941457333	30.12876814751
54	102109	1525.47450435962	1756.6975929287
54	112724	1697.27449649352	493.38170280658
54	128826	1946.51104101747	429.66321895675
54	141429	2137.40932996446	1293.5355017089
54	154063	2335.78994572215	693.35259714319
54	168912	2554.85836567567	0.32487218705067
54	181325	2754.75539317273	644.31393548283
54	194347	2957.6570289999	114.49866238412
54	205568	3129.96127894787	244.6961170539
54	218239	3327.39789564654	64.653806917372
54	230072	3498.78575680778	395.47499332155
55	19598	230.29504645749	344.71521618296
55	32962	436.55038255948	44.716291784658
55	44198	618.12099786354	304.13964368865
55	55755	805.25175356077	311.4010167653
55	68452	1000.81839117925	2312.2734778759
55	82263	1223.94053243122	721.77628331772
55	93563	1398.1603385878	297.90881965829
55	108312	1627.15194509765	10.198328275031
55	119492	1808.55661319735	227.04968441294
55	131172	1981.15397556781	422.09033553449
55	150586	2274.90065223296	190.9617460808
55	161777	2453.60563631089	2011.9034557316
55	172341	2626.28923056636	331.58140817246
55	186874	2838.96473798263	197.05482881771
55	198586	3018.53854418985	281.55367774829
55	209866	3190.64212544596	242.25319909735
55	221751	3382.50217926484	59.04468260991
56	19762	231.68656720247	468.55536479647
56	30974	426.32527925115	289.40158290523
56	42808	608.75437862946	128.18179796781
56	53659	788.52265474012	439.69240848839
56	66459	970.89293351518	150.28698981513
56	79344	1166.62617995272	6.1593759572091
56	90893	1344.70635701988	754.4213843728
56	104568	1559.84061766538	576.25263788459
56	115620	1735.66757515839	23.874586119156
56	126995	1909.98863325311	126.28356795675
56	138837	2099.68791389719	705.41892477229
56	151188	2283.64001423811	1449.7141839273
56	162788	2463.99684539724	1166.5169099468
56	174662	2644.63110099925	120.04637377324
56	187559	2850.26418504213	457.83439713185
56	199561	3029.09835260482	629.71684121042
56	215536	3279.31480585566	45.336028890069
56	228151	3468.9852117001	1422.3368533596
57	20003	233.35810960876	99.403078350571
57	32255	434.51609438967	191.38299822289
57	43860	613.95464202124	44.552901235997
57	55842	806.51344016312	1126.9310155356
57	71369	1042.45442834967	1141.1671353699
57	83002	1234.96759351527	447.60823078201
57	94610	1412.60120043045	326.97553226354
57	106712	1607.36929807259	1400.1995014001
57	118627	1790.81844297136	611.23385424711
57	130583	1968.30631284778	334.63962262281
57	142372	2150.82130005324	751.51882569296
57	153881	2330.76947882962	172.54194536716
57	166018	2503.19140357915	482.96324124675
57	181989	2769.25213110545	1781.0968118625
57	195081	2980.27589674243	910.6255870546
57	208391	3177.00694566266	1311.625317977
57	220104	3359.02480169994	31.61576362574
57	231238	3530.63582940205	88.173165300343
58	20162	234.35661576585	584.21968166049
58	29358	408.30502917013	1093.3719353286
58	40474	580.41604939048	2167.3134024745
58	53076	778.89927798626	100.46006137465
58	65298	955.4600653998	378.10087721286
58	76723	1129.74931092262	186.47583198557
58	87886	1302.13838362453	314.36018323338
58	99538	1490.18291498709	544.92867982973
58	114452	1713.65306140064	398.53634365896
58	130262	1964.6062153404	463.49842276512
58	143087	2171.43656471518	292.16355283324
58	154586	2346.59163247286	492.37202507047
58	166856	2529.57479894287	263.87792621723
58	181755	2765.47518439601	555.3364097208
58	193485	2941.86092881148	653.03408753995
58	205326	3121.26336110288	406.63109206185
58	217894	3321.473246878	1603.6883881553
58	229660	3494.13488573481	950.52666951107
59	20243	234.91280684315	454.72103999314
59	31131	428.02039011403	124.67206312397
59	42215	605.28334851353	644.61788687898
59	54389	793.1339476127	1126.2483482764
59	66925	972.84646426142	321.2334965159
59	77562	1145.07371640137	617.41536478629
59	89441	1321.00353874944	490.61520610745
59	102706	1533.2757331457	77.484177092088
59	114119	1710.83265572948	158.01214221361
59	125088	1886.75421661952	547.75855223556
59	137433	2075.03994890803	183.24375623067
59	148273	2246.35989120636	576.67684758578
59	159294	2427.73598548442	344.67421349532
59	174348	2640.44585439421	952.70418902263
59	188714	2867.3245307005	403.64927465641
59	201127	3053.41681637924	908.51169910098
59	213278	3239.78412408597	297.26822357178
59	227135	3456.41284686785	139.26515626741
60	20583	237.00958126872	913.43414360772
60	31668	430.49251693393	607.60100876014
60	45679	640.4141553374	20.137598017656
60	57391	826.3389677681	1035.7775591227
60	68193	998.41749312062	960.52029968876
60	82582	1228.0535537754	139.92739287474
60	96364	1441.75093244419	24.691132102389
60	107132	1613.81150311185	809.08406633405
60	119803	1810.27010767841	4244.849397039
60	131846	1993.95997920765	604.39210486581
60	143246	2178.16830628829	656.01205716871
60	157001	2378.42579883035	80.461122616529
60	169483	2564.21838215067	138.60174503985
60	180410	2743.44023664078	948.10358233394
60	196077	2988.61374512473	6.6138759843688
60	206994	3161.44683235268	225.80575817101
60	219714	3356.81319888923	225.12532851632
60	231967	3535.83065442441	581.94359984044
61	20665	237.50256089773	204.48699775921
61	31749	431.16316646788	70.665258206745
61	42053	603.62516794519	177.83358381967
61	55497	803.43930777389	307.71923075346
61	67516	982.27232046326	5.4468291399689
61	78401	1155.04801985354	2640.5108297629
61	90815	1344.58139336546	251.93255071697
61	107386	1615.68642617201	280.50936574741
61	120412	1816.09286402382	333.26386162061
61	133503	2012.23428994059	122.10645491654
61	143937	2184.99189414812	1140.7872079794
61	155894	2370.90622084018	52.561902338108
61	167775	2545.10009843567	289.53708297901
61	179735	2726.10875484946	825.84161821279
61	192436	2915.54022807987	573.6289176123
61	204673	3103.25771219479	105.27304678856
61	215614	3279.33199324269	181.58503853485
61	228307	3469.8706236467	46.662395061936
62	20746	238.51447968099	465.29722283122
62	35159	458.7006590653	97.668711799701
62	46493	649.9381492107	260.49000852407
62	60365	868.73732942156	70.312830443639
62	72378	1056.54526980741	1541.249521126
62	84429	1255.47567834344	689.25743281898
62	99037	1474.15993982417	65.019013946236
62	110377	1653.52039794241	320.87906145507
62	124491	1882.26054656606	940.46610703275
62	135619	2054.05094920807	1449.5894523881
62	147470	2235.73348710161	62.348922613343
62	158770	2415.60641518221	2400.4401320554
62	171360	2604.37839250782	14.503231720554
62	182232	2779.02188122504	807.30190293585
62	200517	3039.97717074313	671.53203333733
62	213908	3254.94681733126	2620.7967602928
62	226266	3439.73872286175	601.60238096645
63	21085	240.44008496342	205.33391236192
63	31411	428.73760638932	646.00646321133
63	44937	629.49617247305	38.869299489589
63	56863	815.70229935368	2053.8060613155
63	67937	994.45951040468	65.157962372121
63	84741	1259.85508660469	830.40714180956
63	95661	1432.75002708057	473.22191005782
63	108056	1623.19675252702	410.24148301503
63	121937	1841.70573978442	789.58492012679
63	134686	2031.26102266733	25.950761145252
63	147627	2241.34616645122	442.10056986302
63	159083	2423.5798993487	78.503902555129
63	172107	2624.90831144784	39.795835284666
63	183917	2802.48513561275	502.50981020216
63	195497	2983.98221335682	336.11318940303
63	209629	3189.12542895255	787.89143591697
63	220662	3366.68700593223	362.12060468658
63	234763	3587.71281842404	74.586044745333
64	21166	240.74212855082	588.13021956912
64	35851	477.11390936504	2132.864758361
64	46917	660.00550995534	765.64935876776
64	58404	841.46525902672	469.34127748962
64	70159	1021.54183500556	895.00958806409
64	81470	1206.16966713221	3735.4102884748
64	93719	1398.66633109146	497.41556376567
64	106631	1605.92106474553	0.42745116474701
64	117947	1781.81909308952	207.94569590472
64	131250	1982.75234428129	1222.1783831741
64	142694	2160.86598023579	81.872203530591
64	155662	2370.7503196472	2200.6616455681
64	167697	2545.04092701878	79.933529899305
64	180749	2749.03365006198	778.67245997299
64	193407	2940.97352585362	40.075510352164
64	208313	3176.65053091368	287.80868574611
64	221344	3379.32154573573	137.41818402657
64	233363	3553.23564904717	102.74326877065
65	21514	244.74857505437	501.48946366697
65	35325	461.94727388718	158.29431884272
65	46995	660.18137487597	329.04991268006
65	60109	866.5016024183	10.657605238856
65	70958	1040.11761867995	1102.5635302669
65	88123	1303.88132555662	108.34313899373
65	99873	1493.12796923084	611.35563937986
65	111977	1678.0159417359	183.55500095695
65	125593	1891.71369064206	613.95670675418
65	139429	2106.84441385105	468.97261957043
65	151512	2293.55024299621	501.54926534681
65	164235	2482.38608283647	96.098854489604
65	175240	2654.00825333104	134.51266771585
65	188949	2868.39866637648	156.06659014832
65	202364	3068.75524290262	57.343635275912
65	216019	3281.78155921354	93.409629643582
65	227991	3467.71057498348	560.47245035106
66	21672	245.71111735409	2289.7802815541
66	34404	452.75551109485	1222.4211610599
66	48588	679.59496315667	91.202576669233
66	62765	912.58276511736	296.75186248
66	76452	1124.30729765493	1265.3870904154
66	89029	1317.54619267305	232.95615805555
66	105173	1573.55502293043	239.87339862617
66	116482	1747.92608450239	459.64148216931
66	127884	1934.35574126361	70.101034598761
66	139274	2105.9675382506	103.17625564144
66	150852	2280.0637234285	275.20455050648
66	163139	2471.21426646969	222.97650974154
66	175319	2654.43904268961	65.989751955926
66	186543	2833.15355330703	632.92566391449
66	201630	3059.58158405012	8.5513791302837
66	214738	3263.99325560471	1354.0597676445
66	226430	3442.80229797603	342.21490947702
67	21996	249.86481807648	517.44713924773
67	32333	434.5642098554	370.10787388927
67	43281	610.69789468437	1522.7504153236
67	56281	810.93361442714	94.703881964565
67	69342	1016.4262680862	273.04335751536
67	81091	1199.44460530241	469.69140308407
67	92677	1372.57282321575	817.75516683668
67	103890	1545.42307258395	75.471384753203
67	115875	1738.17800945365	216.74057024411
67	128647	1943.61123322657	1115.9548058836
67	140018	2118.77361722416	897.34071884956
67	152201	2303.11996513138	900.93756844435
67	165396	2499.84795090592	138.18796333257
67	178530	2704.18458517715	82.819510901076
67	189536	2875.89060634506	595.97721670843
67	201284	3053.77617463416	997.18278647581
67	215692	3279.60532136243	648.69389417065
67	229314	3482.73202881105	37.558943082484
68	22077	250.65431235002	318.2861341816
68	34580	453.61681147924	1541.150381107
68	44623	625.85108046852	508.73110523212
68	54930	799.3530892001	89.807779526482
68	67355	978.50179630455	515.36931962621
68	78077	1150.26746770888	1000.8457894144
68	89996	1332.17959708937	317.60575708501
68	101088	1508.29797886033	550.65957501484
68	112481	1683.42486773666	158.89872065761
68	126517	1902.93709949519	302.91761416128
68	138675	2092.54877399727	40.704625622416
68	155428	2369.19190664537	117.18521863482
68	169665	2568.69023420095	998.95089808721
68	180590	2745.85199547773	390.25246906318
68	194007	2950.03087022969	1257.1316488718
68	206006	3137.84609936557	1434.2160552646
68	218739	3340.20775061087	786.19687387616
68	230842	3518.91643953672	126.93012007091
69	22408	252.58879567055	1139.0727716194
69	35486	467.55007200877	716.90612896853
69	47736	669.80313128453	117.32122492747
69	60031	866.09242287382	88.356098496677
69	72695	1059.862165896	103.503724805
69	85268	1270.89737921916	201.19264106787
69	97305	1453.46984494411	485.26938603109
69	116218	1742.8456193657	535.26007270881
69	127469	1925.80177875094	1007.544106366
69	139012	2101.92554127156	400.11209705109
69	150507	2274.45881364427	1096.2983357201
69	161179	2447.34379220031	303.30196210308
69	172745	2627.67208138573	80.122755628843
69	188792	2867.39030931162	148.81040098277
69	202096	3064.44979037634	215.43982349126
69	213101	3238.02124540525	181.79265059932
69	224231	3410.72550307261	1824.6270975033
69	234675	3586.07557499886	173.74752497482
70	22761	262.22087846355	687.77240967258
70	32167	433.52601942572	247.36672976533
70	48104	677.19999252419	172.53323256024
70	60533	872.10223721901	228.42405994454
70	72616	1058.71238607798	250.88074458434
70	82768	1232.9212681893	43.492932827339
70	94217	1407.95949625414	693.32993191914
70	105951	1590.48041926402	12.608622830265
70	117341	1770.87564342803	749.10023710481
70	132030	1997.41911005904	1013.6045179557
70	145189	2193.36803464804	1772.9830978663
70	155584	2370.45689303519	508.99535939746
70	167619	2544.97885854598	99.946100287082
70	179564	2720.36374047257	964.4369538357
70	191055	2897.05061517637	1146.9159878673
70	202617	3071.37887520322	839.42047836195
70	216870	3295.68029477633	306.23052104539
70	229504	3490.11938502007	156.95261581086
71	22839	262.34247104963	2249.5163255118
71	33482	441.74109969989	936.53537254065
71	44780	627.79489488782	632.07823447733
71	57915	837.26648169367	1370.0877762438
71	71559	1045.83383254559	142.10847367823
71	84244	1249.2643771097	24.413821785202
71	94986	1424.96885437598	456.22728388625
71	107540	1615.99261908349	262.20843814833
71	120997	1825.41623571687	113.94584587529
71	136195	2061.78135120156	1207.5000465902
71	148801	2251.43372980975	1143.8293158031
71	160603	2444.02115456444	1044.2621441882
71	174820	2646.36657409478	2744.6205598243
71	191383	2899.67329487341	308.16495749775
71	203117	3076.22491820146	43.03287609797
71	216214	3286.55267277982	240.44141844317
71	228542	3470.81364655297	673.74019480729
72	22917	262.70658052206	110.5557607213
72	32414	435.22581553696	308.19899647315
72	44458	620.82796233473	246.93490625435
72	56103	809.15256646323	31.170249944355
72	69728	1018.01616971103	1081.3515387378
72	82848	1233.82576023556	599.055860501
72	94062	1405.23378456479	288.68507040722
72	106112	1594.09037983354	288.44553183746
72	117604	1775.34965346166	928.02996987624
72	129661	1956.84801090835	1855.5714122311
72	140675	2128.7011232346	488.95398526837
72	158141	2397.87226209008	1369.9520468571
72	169986	2578.75127573564	87.728611484685
72	186714	2836.03087446744	820.75389224871
72	198976	3021.15082879154	502.10724183018
72	210285	3194.49136924965	905.89540368534
72	220919	3370.44688081309	75.34805238725
72	233178	3550.32430160718	886.69748893541
73	22996	263.75042599117	149.4348770196
73	36166	486.57925595951	30.266068700033
73	48674	680.89752318904	304.89148540415
73	60697	877.41153177394	1651.0709847543
73	72135	1052.93183480456	355.28929989093
73	85081	1264.84813934813	203.17407786143
73	96107	1439.08966545928	1257.9113055453
73	107623	1617.14196310343	1197.5729142259
73	124413	1882.05380199722	188.4743497714
73	136772	2067.94053340625	1.7535318964705
73	148036	2243.98786671828	123.28578009173
73	165242	2499.14619573075	427.68058098602
73	179813	2726.22303816924	19.046605501693
73	192515	2915.66835965991	1593.5464456373
73	211312	3213.78428368885	1107.2728100911
73	223181	3402.03766130215	754.26792109213
73	233849	3577.84250208325	32.798029031623
74	23423	269.72940392865	849.60399350546
74	34141	448.63268587811	1078.3455353902
74	45273	632.31802164662	967.67968920423
74	56782	815.15508189459	589.92973197733
74	68873	1014.66108294711	1539.4979269683
74	80269	1193.0490322921	181.32905972013
74	93216	1382.14916399747	2232.1154723407
74	105427	1576.28326010696	536.1358730462
74	117867	1780.86185696863	727.81272634301
74	129822	1959.47252677157	756.96414105641
74	143753	2182.55692546661	155.81450923131
74	154926	2355.65619853698	394.29562728037
74	166776	2528.48692496287	391.8273419177
74	179309	2717.97056916284	328.55750591551
74	191732	2908.87005139205	107.50516012141
74	203624	3087.95489557218	2135.3288405275
74	215004	3267.34127980418	184.17944474798
74	227315	3459.13027821711	519.37927522259
75	23578	272.99705283513	42.761969981543
75	33980	446.58529371196	2364.7146399817
75	48183	677.72277363146	910.15901530242
75	59278	857.35218671372	129.39872336916
75	72536	1058.55830511754	164.420081064
75	83339	1238.45902713331	281.32759662816
75	98697	1469.77867062904	449.23600912282
75	109608	1641.97658387188	886.55223510276
75	121152	1826.68172735069	1200.0347732426
75	132264	1999.43050193731	166.06943774392
75	146890	2219.05058417135	521.42537027181
75	158059	2396.28028486224	665.35014741933
75	170500	2587.08301770549	256.11012655849
75	182310	2779.09624759189	880.54945864977
75	194690	2973.43250131404	2619.4828702415
75	210637	3207.41378532776	509.97218407668
75	221996	3385.13947153827	45.493969404936
75	234937	3588.41427242774	72.295282787172
76	23764	279.21671821761	147.03804140915
76	36245	488.06845198739	172.57940187329
76	49266	709.81734950657	169.809313435
76	61031	881.82872076782	868.24088080068
76	75713	1111.50949823083	42.969312157279
76	86440	1283.14616779856	650.17229480155
76	97831	1459.96753816598	93.790978593343
76	109280	1638.34417280152	339.35367586487
76	120761	1822.34253529796	206.39762293029
76	135062	2039.58806908483	1492.5013614187
76	147304	2224.4001647111	659.70118763281
76	158927	2421.14616982989	177.89489255045
76	174426	2640.87829193603	1032.9089649145
76	185418	2821.81942822623	300.14443896137
76	196914	2997.97083552515	745.44384611333
76	207862	3172.38291795626	147.45064478469
76	219211	3348.1276815126	484.42307799506
76	230920	3519.87227116197	59.942385500222
77	24079	298.24080382822	285.0254877218
77	36510	496.60291239681	361.12875055801
77	49916	723.32542881495	419.3035270552
77	62431	910.14161092419	37.350681102913
77	74857	1099.93904389506	38.838513067386
77	86972	1290.67581793685	2010.9922218457
77	99617	1490.97164287156	607.9653545386
77	111297	1671.53345367162	506.66414938178
77	122854	1848.92695989052	1185.8215769228
77	134347	2026.78804349545	987.47958159127
77	145968	2203.14613246451	245.68198900949
77	156919	2378.14159198765	1405.2718289701
77	168578	2553.08842417304	806.48082536857
77	181909	2767.61020341107	7.7144298900745
77	193818	2945.18759382567	564.71463067084
77	205490	3128.82631398387	91.169110775489
77	218054	3324.00838387547	1233.0142534297
77	230661	3513.08207742579	1028.2914714884
78	24256	300.23182879029	113.69371614051
78	37883	547.56729270017	100.75951313879
78	49657	719.62543946187	624.8014635241
78	61376	891.54019941093	436.4878608872
78	74181	1089.85534384336	156.30439081541
78	86683	1286.11593224773	1566.7617110834
78	98512	1467.49166274742	148.57740829706
78	111137	1669.88568196399	496.45034509103
78	122772	1847.982064667	203.55062157761
78	134901	2034.42593651102	325.99964297822
78	149067	2254.78057522291	820.12301404345
78	161258	2447.5650105474	72.444505861733
78	172263	2625.67944037522	79.749211727416
78	183652	2797.41911695376	1416.8677049349
78	199323	3026.64354448256	1694.4263038953
78	211831	3218.35511297098	454.66067733823
78	224151	3410.47472777987	47.065220903997
79	24627	316.75483511889	375.04119293838
79	36872	519.60740945034	961.60799519834
79	49425	717.03186991398	1068.7195292599
79	61852	899.16022568637	1698.9414733279
79	74512	1095.17063248258	173.41225583875
79	85346	1271.30134190807	44.356727148165
79	104151	1553.97318800715	192.31679359624
79	118343	1787.93608891902	1305.9390969717
79	130086	1964.02057221549	265.31884732342
79	141507	2137.7080900589	164.92362338469
79	152781	2317.88884161471	1342.3962946439
79	165475	2500.65743254817	252.08680830034
79	177682	2679.2030952462	493.3213453668
79	190778	2889.54121915772	513.22162733945
79	202857	3073.79515945823	99.501988209062
79	213830	3254.8481644232	918.96514884496
79	229896	3497.84316380451	1267.6578717497

