version 3
run N75-15-20260518-02:27:11-159888
attr configname N75
attr datetime 20260518-02:27:11
attr datetimef 20260518-022711
attr experiment N75
attr inifile omnetpp.ini
attr iterationvars "$0=\"avg\""
attr iterationvarsd avg
attr iterationvarsf avg-
attr measurement "$0=\"avg\""
attr network test2.LoRaNetworkTest
attr processid 159888
attr repetition 15
attr replication #15
attr resultdir results
attr runnumber 15
attr seedset 15
config extends General
config **.numPatients 75
config network test2.LoRaNetworkTest
config sim-time-limit 1h
config warmup-period 60s
config simtime-resolution -11
config repeat 30
config rng-class cMersenneTwister
config record-eventlog false
config **.numPatients 20
config **.HospitalServer.app[0].queueLength:vector.vector-recording true
config **.HospitalServer.app[0].urgentWaitTime:vector.vector-recording true
config **.HospitalServer.app[0].normalWaitTime:vector.vector-recording true
config **.HospitalServer.app[0].urgentEndToEndDelay:vector.vector-recording true
config **.HospitalServer.app[0].normalEndToEndDelay:vector.vector-recording true
config **.loRaNodes[*].app[0].emergencyVariate:vector.vector-recording true
config **.vector-recording false
config **.loRaNodes[0].**.initialX "300m + uniform(-10m, 10m)"
config **.loRaNodes[0].**.initialY "250m + uniform(-8m, 8m)"
config **.loRaNodes[1].**.initialX "450m + uniform(-10m, 10m)"
config **.loRaNodes[1].**.initialY "250m + uniform(-8m, 8m)"
config **.loRaNodes[2].**.initialX "600m + uniform(-10m, 10m)"
config **.loRaNodes[2].**.initialY "250m + uniform(-8m, 8m)"
config **.loRaNodes[3].**.initialX "750m + uniform(-10m, 10m)"
config **.loRaNodes[3].**.initialY "250m + uniform(-8m, 8m)"
config **.loRaNodes[4].**.initialX "900m + uniform(-10m, 10m)"
config **.loRaNodes[4].**.initialY "250m + uniform(-8m, 8m)"
config **.loRaNodes[5].**.initialX "1050m + uniform(-10m, 10m)"
config **.loRaNodes[5].**.initialY "250m + uniform(-8m, 8m)"
config **.loRaNodes[6].**.initialX "1200m + uniform(-10m, 10m)"
config **.loRaNodes[6].**.initialY "250m + uniform(-8m, 8m)"
config **.loRaNodes[7].**.initialX "1350m + uniform(-10m, 10m)"
config **.loRaNodes[7].**.initialY "250m + uniform(-8m, 8m)"
config **.loRaNodes[8].**.initialX "1500m + uniform(-10m, 10m)"
config **.loRaNodes[8].**.initialY "250m + uniform(-8m, 8m)"
config **.loRaNodes[9].**.initialX "1650m + uniform(-10m, 10m)"
config **.loRaNodes[9].**.initialY "250m + uniform(-8m, 8m)"
config **.loRaNodes[10].**.initialX "300m + uniform(-10m, 10m)"
config **.loRaNodes[10].**.initialY "370m + uniform(-8m, 8m)"
config **.loRaNodes[11].**.initialX "450m + uniform(-10m, 10m)"
config **.loRaNodes[11].**.initialY "370m + uniform(-8m, 8m)"
config **.loRaNodes[12].**.initialX "600m + uniform(-10m, 10m)"
config **.loRaNodes[12].**.initialY "370m + uniform(-8m, 8m)"
config **.loRaNodes[13].**.initialX "750m + uniform(-10m, 10m)"
config **.loRaNodes[13].**.initialY "370m + uniform(-8m, 8m)"
config **.loRaNodes[14].**.initialX "900m + uniform(-10m, 10m)"
config **.loRaNodes[14].**.initialY "370m + uniform(-8m, 8m)"
config **.loRaNodes[15].**.initialX "1050m + uniform(-10m, 10m)"
config **.loRaNodes[15].**.initialY "370m + uniform(-8m, 8m)"
config **.loRaNodes[16].**.initialX "1200m + uniform(-10m, 10m)"
config **.loRaNodes[16].**.initialY "370m + uniform(-8m, 8m)"
config **.loRaNodes[17].**.initialX "1350m + uniform(-10m, 10m)"
config **.loRaNodes[17].**.initialY "370m + uniform(-8m, 8m)"
config **.loRaNodes[18].**.initialX "1500m + uniform(-10m, 10m)"
config **.loRaNodes[18].**.initialY "370m + uniform(-8m, 8m)"
config **.loRaNodes[19].**.initialX "1650m + uniform(-10m, 10m)"
config **.loRaNodes[19].**.initialY "370m + uniform(-8m, 8m)"
config **.loRaNodes[20].**.initialX "300m + uniform(-10m, 10m)"
config **.loRaNodes[20].**.initialY "490m + uniform(-8m, 8m)"
config **.loRaNodes[21].**.initialX "450m + uniform(-10m, 10m)"
config **.loRaNodes[21].**.initialY "490m + uniform(-8m, 8m)"
config **.loRaNodes[22].**.initialX "600m + uniform(-10m, 10m)"
config **.loRaNodes[22].**.initialY "490m + uniform(-8m, 8m)"
config **.loRaNodes[23].**.initialX "750m + uniform(-10m, 10m)"
config **.loRaNodes[23].**.initialY "490m + uniform(-8m, 8m)"
config **.loRaNodes[24].**.initialX "900m + uniform(-10m, 10m)"
config **.loRaNodes[24].**.initialY "490m + uniform(-8m, 8m)"
config **.loRaNodes[25].**.initialX "1050m + uniform(-10m, 10m)"
config **.loRaNodes[25].**.initialY "490m + uniform(-8m, 8m)"
config **.loRaNodes[26].**.initialX "1200m + uniform(-10m, 10m)"
config **.loRaNodes[26].**.initialY "490m + uniform(-8m, 8m)"
config **.loRaNodes[27].**.initialX "1350m + uniform(-10m, 10m)"
config **.loRaNodes[27].**.initialY "490m + uniform(-8m, 8m)"
config **.loRaNodes[28].**.initialX "1500m + uniform(-10m, 10m)"
config **.loRaNodes[28].**.initialY "490m + uniform(-8m, 8m)"
config **.loRaNodes[29].**.initialX "1650m + uniform(-10m, 10m)"
config **.loRaNodes[29].**.initialY "490m + uniform(-8m, 8m)"
config **.loRaNodes[30].**.initialX "300m + uniform(-10m, 10m)"
config **.loRaNodes[30].**.initialY "610m + uniform(-8m, 8m)"
config **.loRaNodes[31].**.initialX "450m + uniform(-10m, 10m)"
config **.loRaNodes[31].**.initialY "610m + uniform(-8m, 8m)"
config **.loRaNodes[32].**.initialX "600m + uniform(-10m, 10m)"
config **.loRaNodes[32].**.initialY "610m + uniform(-8m, 8m)"
config **.loRaNodes[33].**.initialX "750m + uniform(-10m, 10m)"
config **.loRaNodes[33].**.initialY "610m + uniform(-8m, 8m)"
config **.loRaNodes[34].**.initialX "900m + uniform(-10m, 10m)"
config **.loRaNodes[34].**.initialY "610m + uniform(-8m, 8m)"
config **.loRaNodes[35].**.initialX "1050m + uniform(-10m, 10m)"
config **.loRaNodes[35].**.initialY "610m + uniform(-8m, 8m)"
config **.loRaNodes[36].**.initialX "1200m + uniform(-10m, 10m)"
config **.loRaNodes[36].**.initialY "610m + uniform(-8m, 8m)"
config **.loRaNodes[37].**.initialX "1350m + uniform(-10m, 10m)"
config **.loRaNodes[37].**.initialY "610m + uniform(-8m, 8m)"
config **.loRaNodes[38].**.initialX "1500m + uniform(-10m, 10m)"
config **.loRaNodes[38].**.initialY "610m + uniform(-8m, 8m)"
config **.loRaNodes[39].**.initialX "1650m + uniform(-10m, 10m)"
config **.loRaNodes[39].**.initialY "610m + uniform(-8m, 8m)"
config **.loRaNodes[40].**.initialX "300m + uniform(-10m, 10m)"
config **.loRaNodes[40].**.initialY "730m + uniform(-8m, 8m)"
config **.loRaNodes[41].**.initialX "450m + uniform(-10m, 10m)"
config **.loRaNodes[41].**.initialY "730m + uniform(-8m, 8m)"
config **.loRaNodes[42].**.initialX "600m + uniform(-10m, 10m)"
config **.loRaNodes[42].**.initialY "730m + uniform(-8m, 8m)"
config **.loRaNodes[43].**.initialX "750m + uniform(-10m, 10m)"
config **.loRaNodes[43].**.initialY "730m + uniform(-8m, 8m)"
config **.loRaNodes[44].**.initialX "900m + uniform(-10m, 10m)"
config **.loRaNodes[44].**.initialY "730m + uniform(-8m, 8m)"
config **.loRaNodes[45].**.initialX "1050m + uniform(-10m, 10m)"
config **.loRaNodes[45].**.initialY "730m + uniform(-8m, 8m)"
config **.loRaNodes[46].**.initialX "1200m + uniform(-10m, 10m)"
config **.loRaNodes[46].**.initialY "730m + uniform(-8m, 8m)"
config **.loRaNodes[47].**.initialX "1350m + uniform(-10m, 10m)"
config **.loRaNodes[47].**.initialY "730m + uniform(-8m, 8m)"
config **.loRaNodes[48].**.initialX "1500m + uniform(-10m, 10m)"
config **.loRaNodes[48].**.initialY "730m + uniform(-8m, 8m)"
config **.loRaNodes[49].**.initialX "1650m + uniform(-10m, 10m)"
config **.loRaNodes[49].**.initialY "730m + uniform(-8m, 8m)"
config **.loRaNodes[50].**.initialX "300m + uniform(-10m, 10m)"
config **.loRaNodes[50].**.initialY "850m + uniform(-8m, 8m)"
config **.loRaNodes[51].**.initialX "450m + uniform(-10m, 10m)"
config **.loRaNodes[51].**.initialY "850m + uniform(-8m, 8m)"
config **.loRaNodes[52].**.initialX "600m + uniform(-10m, 10m)"
config **.loRaNodes[52].**.initialY "850m + uniform(-8m, 8m)"
config **.loRaNodes[53].**.initialX "750m + uniform(-10m, 10m)"
config **.loRaNodes[53].**.initialY "850m + uniform(-8m, 8m)"
config **.loRaNodes[54].**.initialX "900m + uniform(-10m, 10m)"
config **.loRaNodes[54].**.initialY "850m + uniform(-8m, 8m)"
config **.loRaNodes[55].**.initialX "1050m + uniform(-10m, 10m)"
config **.loRaNodes[55].**.initialY "850m + uniform(-8m, 8m)"
config **.loRaNodes[56].**.initialX "1200m + uniform(-10m, 10m)"
config **.loRaNodes[56].**.initialY "850m + uniform(-8m, 8m)"
config **.loRaNodes[57].**.initialX "1350m + uniform(-10m, 10m)"
config **.loRaNodes[57].**.initialY "850m + uniform(-8m, 8m)"
config **.loRaNodes[58].**.initialX "1500m + uniform(-10m, 10m)"
config **.loRaNodes[58].**.initialY "850m + uniform(-8m, 8m)"
config **.loRaNodes[59].**.initialX "1650m + uniform(-10m, 10m)"
config **.loRaNodes[59].**.initialY "850m + uniform(-8m, 8m)"
config **.loRaNodes[60].**.initialX "300m + uniform(-10m, 10m)"
config **.loRaNodes[60].**.initialY "970m + uniform(-8m, 8m)"
config **.loRaNodes[61].**.initialX "450m + uniform(-10m, 10m)"
config **.loRaNodes[61].**.initialY "970m + uniform(-8m, 8m)"
config **.loRaNodes[62].**.initialX "600m + uniform(-10m, 10m)"
config **.loRaNodes[62].**.initialY "970m + uniform(-8m, 8m)"
config **.loRaNodes[63].**.initialX "750m + uniform(-10m, 10m)"
config **.loRaNodes[63].**.initialY "970m + uniform(-8m, 8m)"
config **.loRaNodes[64].**.initialX "900m + uniform(-10m, 10m)"
config **.loRaNodes[64].**.initialY "970m + uniform(-8m, 8m)"
config **.loRaNodes[65].**.initialX "1050m + uniform(-10m, 10m)"
config **.loRaNodes[65].**.initialY "970m + uniform(-8m, 8m)"
config **.loRaNodes[66].**.initialX "1200m + uniform(-10m, 10m)"
config **.loRaNodes[66].**.initialY "970m + uniform(-8m, 8m)"
config **.loRaNodes[67].**.initialX "1350m + uniform(-10m, 10m)"
config **.loRaNodes[67].**.initialY "970m + uniform(-8m, 8m)"
config **.loRaNodes[68].**.initialX "1500m + uniform(-10m, 10m)"
config **.loRaNodes[68].**.initialY "970m + uniform(-8m, 8m)"
config **.loRaNodes[69].**.initialX "1650m + uniform(-10m, 10m)"
config **.loRaNodes[69].**.initialY "970m + uniform(-8m, 8m)"
config **.loRaNodes[70].**.initialX "300m + uniform(-10m, 10m)"
config **.loRaNodes[70].**.initialY "1090m + uniform(-8m, 8m)"
config **.loRaNodes[71].**.initialX "450m + uniform(-10m, 10m)"
config **.loRaNodes[71].**.initialY "1090m + uniform(-8m, 8m)"
config **.loRaNodes[72].**.initialX "600m + uniform(-10m, 10m)"
config **.loRaNodes[72].**.initialY "1090m + uniform(-8m, 8m)"
config **.loRaNodes[73].**.initialX "750m + uniform(-10m, 10m)"
config **.loRaNodes[73].**.initialY "1090m + uniform(-8m, 8m)"
config **.loRaNodes[74].**.initialX "900m + uniform(-10m, 10m)"
config **.loRaNodes[74].**.initialY "1090m + uniform(-8m, 8m)"
config **.HospitalServer.numApps 1
config **.HospitalServer.app[0].typename HospitalServerApp
config **.HospitalServer.app[0].destPort 2000
config **.HospitalServer.app[0].localPort 1000
config **.HospitalServer.app[0].adrMethod "\"avg\""
config **.HospitalServer.**.evaluateADRinServer true
config **.HospitalServer.app[0].queueSize 50
config **.HospitalServer.app[0].expo_rate_lambda 0.83
config **.loRaGateway.numUdpApps 1
config **.loRaGateway.packetForwarder.localPort 2000
config **.loRaGateway.packetForwarder.destPort 1000
config **.loRaGateway.packetForwarder.destAddresses "\"HospitalServer\""
config **.loRaGateway.**.initFromDisplayString false
config **.loRaGateway.**.initialX 544.00m
config **.loRaGateway.**.initialY 544.00m
config **.loRaNodes[*].numApps 1
config **.loRaNodes[*].app[0].typename PatientSensorApp
config **.loRaNodes[*].app[0].expo_rate_lambda 0.00175
config **.loRaNodes[*].app[0].emergencyThreshold 50
config **.loRaNodes[*].**.timeToFirstPacket exponential(24s)
config **.loRaNodes[*].**.timeToNextPacket exponential(24s)
config **.loRaNodes[*].**.numberOfPacketsToSend 0
config **.loRaNodes[*].**initialLoRaSF 12
config **.loRaNodes[*].**initialLoRaTP 14dBm
config **.loRaNodes[*].**initialLoRaBW "125 kHz"
config **.loRaNodes[*].**initialLoRaCR 4
config **.loRaNodes[*].**.initFromDisplayString false
config **.loRaNodes[*].**.evaluateADRinNode true
config **.loRaNodes[*].LoRaNic.radio.energyConsumer.typename LoRaEnergyConsumer
config **.loRaNodes[*].**.energySourceModule "\"^.IdealEpEnergyStorage\""
config **.loRaNodes[*].LoRaNic.radio.energyConsumer.configFile "xmldoc(\"energyConsumptionParam.xml\")"
config **.maxTransmissionDuration 4s
config **.energyDetection -110dBm
config **.radio.radioMediumModule "\"LoRaMedium\""
config **.minInterferenceTime 0s
config **.constraintAreaMinX 0m
config **.constraintAreaMinY 0m
config **.constraintAreaMinZ 0m
config **.constraintAreaMaxZ 0m
config **.constraintAreaMaxX 3000.0m
config **.constraintAreaMaxY 3000.0m

vector 0 LoRaNetworkTest.HospitalServer.app[0] queueLength:vector ETV
attr recordingmode vector
attr title "Total queue length"
vector 1 LoRaNetworkTest.HospitalServer.app[0] normalWaitTime:vector ETV
attr recordingmode vector
attr title "Normal wait time (s)"
vector 2 LoRaNetworkTest.HospitalServer.app[0] normalEndToEndDelay:vector ETV
attr recordingmode vector
attr title "Normal end-to-end delay (s)"
vector 3 LoRaNetworkTest.loRaNodes[5].app[0] emergencyVariate:vector ETV
attr recordingmode vector
attr title "Exponential variate samples"
vector 4 LoRaNetworkTest.loRaNodes[44].app[0] emergencyVariate:vector ETV
attr recordingmode vector
attr title "Exponential variate samples"
vector 5 LoRaNetworkTest.loRaNodes[71].app[0] emergencyVariate:vector ETV
attr recordingmode vector
attr title "Exponential variate samples"
vector 6 LoRaNetworkTest.loRaNodes[45].app[0] emergencyVariate:vector ETV
attr recordingmode vector
attr title "Exponential variate samples"
vector 7 LoRaNetworkTest.loRaNodes[66].app[0] emergencyVariate:vector ETV
attr recordingmode vector
attr title "Exponential variate samples"
vector 8 LoRaNetworkTest.loRaNodes[55].app[0] emergencyVariate:vector ETV
attr recordingmode vector
attr title "Exponential variate samples"
vector 9 LoRaNetworkTest.loRaNodes[16].app[0] emergencyVariate:vector ETV
attr recordingmode vector
attr title "Exponential variate samples"
vector 10 LoRaNetworkTest.loRaNodes[28].app[0] emergencyVariate:vector ETV
attr recordingmode vector
attr title "Exponential variate samples"
vector 11 LoRaNetworkTest.loRaNodes[69].app[0] emergencyVariate:vector ETV
attr recordingmode vector
attr title "Exponential variate samples"
vector 12 LoRaNetworkTest.loRaNodes[54].app[0] emergencyVariate:vector ETV
attr recordingmode vector
attr title "Exponential variate samples"
vector 13 LoRaNetworkTest.loRaNodes[21].app[0] emergencyVariate:vector ETV
attr recordingmode vector
attr title "Exponential variate samples"
vector 14 LoRaNetworkTest.loRaNodes[30].app[0] emergencyVariate:vector ETV
attr recordingmode vector
attr title "Exponential variate samples"
vector 15 LoRaNetworkTest.loRaNodes[4].app[0] emergencyVariate:vector ETV
attr recordingmode vector
attr title "Exponential variate samples"
vector 16 LoRaNetworkTest.loRaNodes[7].app[0] emergencyVariate:vector ETV
attr recordingmode vector
attr title "Exponential variate samples"
vector 17 LoRaNetworkTest.loRaNodes[8].app[0] emergencyVariate:vector ETV
attr recordingmode vector
attr title "Exponential variate samples"
vector 18 LoRaNetworkTest.loRaNodes[29].app[0] emergencyVariate:vector ETV
attr recordingmode vector
attr title "Exponential variate samples"
vector 19 LoRaNetworkTest.loRaNodes[34].app[0] emergencyVariate:vector ETV
attr recordingmode vector
attr title "Exponential variate samples"
vector 20 LoRaNetworkTest.loRaNodes[39].app[0] emergencyVariate:vector ETV
attr recordingmode vector
attr title "Exponential variate samples"
vector 21 LoRaNetworkTest.loRaNodes[25].app[0] emergencyVariate:vector ETV
attr recordingmode vector
attr title "Exponential variate samples"
vector 22 LoRaNetworkTest.loRaNodes[74].app[0] emergencyVariate:vector ETV
attr recordingmode vector
attr title "Exponential variate samples"
vector 23 LoRaNetworkTest.loRaNodes[63].app[0] emergencyVariate:vector ETV
attr recordingmode vector
attr title "Exponential variate samples"
vector 24 LoRaNetworkTest.loRaNodes[58].app[0] emergencyVariate:vector ETV
attr recordingmode vector
attr title "Exponential variate samples"
vector 25 LoRaNetworkTest.loRaNodes[35].app[0] emergencyVariate:vector ETV
attr recordingmode vector
attr title "Exponential variate samples"
vector 26 LoRaNetworkTest.loRaNodes[17].app[0] emergencyVariate:vector ETV
attr recordingmode vector
attr title "Exponential variate samples"
vector 27 LoRaNetworkTest.loRaNodes[12].app[0] emergencyVariate:vector ETV
attr recordingmode vector
attr title "Exponential variate samples"
vector 28 LoRaNetworkTest.loRaNodes[31].app[0] emergencyVariate:vector ETV
attr recordingmode vector
attr title "Exponential variate samples"
vector 29 LoRaNetworkTest.loRaNodes[41].app[0] emergencyVariate:vector ETV
attr recordingmode vector
attr title "Exponential variate samples"
vector 30 LoRaNetworkTest.HospitalServer.app[0] urgentWaitTime:vector ETV
attr recordingmode vector
attr title "Urgent wait time (s)"
vector 31 LoRaNetworkTest.HospitalServer.app[0] urgentEndToEndDelay:vector ETV
attr recordingmode vector
attr title "Urgent end-to-end delay (s)"
vector 32 LoRaNetworkTest.loRaNodes[40].app[0] emergencyVariate:vector ETV
attr recordingmode vector
attr title "Exponential variate samples"
vector 33 LoRaNetworkTest.loRaNodes[42].app[0] emergencyVariate:vector ETV
attr recordingmode vector
attr title "Exponential variate samples"
vector 34 LoRaNetworkTest.loRaNodes[47].app[0] emergencyVariate:vector ETV
attr recordingmode vector
attr title "Exponential variate samples"
vector 35 LoRaNetworkTest.loRaNodes[14].app[0] emergencyVariate:vector ETV
attr recordingmode vector
attr title "Exponential variate samples"
vector 36 LoRaNetworkTest.loRaNodes[48].app[0] emergencyVariate:vector ETV
attr recordingmode vector
attr title "Exponential variate samples"
vector 37 LoRaNetworkTest.loRaNodes[56].app[0] emergencyVariate:vector ETV
attr recordingmode vector
attr title "Exponential variate samples"
vector 38 LoRaNetworkTest.loRaNodes[13].app[0] emergencyVariate:vector ETV
attr recordingmode vector
attr title "Exponential variate samples"
vector 39 LoRaNetworkTest.loRaNodes[1].app[0] emergencyVariate:vector ETV
attr recordingmode vector
attr title "Exponential variate samples"
vector 40 LoRaNetworkTest.loRaNodes[52].app[0] emergencyVariate:vector ETV
attr recordingmode vector
attr title "Exponential variate samples"
vector 41 LoRaNetworkTest.loRaNodes[33].app[0] emergencyVariate:vector ETV
attr recordingmode vector
attr title "Exponential variate samples"
vector 42 LoRaNetworkTest.loRaNodes[49].app[0] emergencyVariate:vector ETV
attr recordingmode vector
attr title "Exponential variate samples"
vector 43 LoRaNetworkTest.loRaNodes[53].app[0] emergencyVariate:vector ETV
attr recordingmode vector
attr title "Exponential variate samples"
vector 44 LoRaNetworkTest.loRaNodes[3].app[0] emergencyVariate:vector ETV
attr recordingmode vector
attr title "Exponential variate samples"
vector 45 LoRaNetworkTest.loRaNodes[24].app[0] emergencyVariate:vector ETV
attr recordingmode vector
attr title "Exponential variate samples"
vector 46 LoRaNetworkTest.loRaNodes[15].app[0] emergencyVariate:vector ETV
attr recordingmode vector
attr title "Exponential variate samples"
vector 47 LoRaNetworkTest.loRaNodes[26].app[0] emergencyVariate:vector ETV
attr recordingmode vector
attr title "Exponential variate samples"
vector 48 LoRaNetworkTest.loRaNodes[70].app[0] emergencyVariate:vector ETV
attr recordingmode vector
attr title "Exponential variate samples"
vector 49 LoRaNetworkTest.loRaNodes[50].app[0] emergencyVariate:vector ETV
attr recordingmode vector
attr title "Exponential variate samples"
vector 50 LoRaNetworkTest.loRaNodes[22].app[0] emergencyVariate:vector ETV
attr recordingmode vector
attr title "Exponential variate samples"
vector 51 LoRaNetworkTest.loRaNodes[6].app[0] emergencyVariate:vector ETV
attr recordingmode vector
attr title "Exponential variate samples"
vector 52 LoRaNetworkTest.loRaNodes[60].app[0] emergencyVariate:vector ETV
attr recordingmode vector
attr title "Exponential variate samples"
vector 53 LoRaNetworkTest.loRaNodes[2].app[0] emergencyVariate:vector ETV
attr recordingmode vector
attr title "Exponential variate samples"
vector 54 LoRaNetworkTest.loRaNodes[18].app[0] emergencyVariate:vector ETV
attr recordingmode vector
attr title "Exponential variate samples"
vector 55 LoRaNetworkTest.loRaNodes[51].app[0] emergencyVariate:vector ETV
attr recordingmode vector
attr title "Exponential variate samples"
vector 56 LoRaNetworkTest.loRaNodes[9].app[0] emergencyVariate:vector ETV
attr recordingmode vector
attr title "Exponential variate samples"
vector 57 LoRaNetworkTest.loRaNodes[57].app[0] emergencyVariate:vector ETV
attr recordingmode vector
attr title "Exponential variate samples"
vector 58 LoRaNetworkTest.loRaNodes[10].app[0] emergencyVariate:vector ETV
attr recordingmode vector
attr title "Exponential variate samples"
vector 59 LoRaNetworkTest.loRaNodes[0].app[0] emergencyVariate:vector ETV
attr recordingmode vector
attr title "Exponential variate samples"
vector 60 LoRaNetworkTest.loRaNodes[38].app[0] emergencyVariate:vector ETV
attr recordingmode vector
attr title "Exponential variate samples"
vector 61 LoRaNetworkTest.loRaNodes[27].app[0] emergencyVariate:vector ETV
attr recordingmode vector
attr title "Exponential variate samples"
vector 62 LoRaNetworkTest.loRaNodes[37].app[0] emergencyVariate:vector ETV
attr recordingmode vector
attr title "Exponential variate samples"
vector 63 LoRaNetworkTest.loRaNodes[11].app[0] emergencyVariate:vector ETV
attr recordingmode vector
attr title "Exponential variate samples"
vector 64 LoRaNetworkTest.loRaNodes[62].app[0] emergencyVariate:vector ETV
attr recordingmode vector
attr title "Exponential variate samples"
vector 65 LoRaNetworkTest.loRaNodes[20].app[0] emergencyVariate:vector ETV
attr recordingmode vector
attr title "Exponential variate samples"
vector 66 LoRaNetworkTest.loRaNodes[43].app[0] emergencyVariate:vector ETV
attr recordingmode vector
attr title "Exponential variate samples"
vector 67 LoRaNetworkTest.loRaNodes[72].app[0] emergencyVariate:vector ETV
attr recordingmode vector
attr title "Exponential variate samples"
vector 68 LoRaNetworkTest.loRaNodes[61].app[0] emergencyVariate:vector ETV
attr recordingmode vector
attr title "Exponential variate samples"
vector 69 LoRaNetworkTest.loRaNodes[36].app[0] emergencyVariate:vector ETV
attr recordingmode vector
attr title "Exponential variate samples"
vector 70 LoRaNetworkTest.loRaNodes[59].app[0] emergencyVariate:vector ETV
attr recordingmode vector
attr title "Exponential variate samples"
vector 71 LoRaNetworkTest.loRaNodes[19].app[0] emergencyVariate:vector ETV
attr recordingmode vector
attr title "Exponential variate samples"
vector 72 LoRaNetworkTest.loRaNodes[65].app[0] emergencyVariate:vector ETV
attr recordingmode vector
attr title "Exponential variate samples"
vector 73 LoRaNetworkTest.loRaNodes[64].app[0] emergencyVariate:vector ETV
attr recordingmode vector
attr title "Exponential variate samples"
vector 74 LoRaNetworkTest.loRaNodes[73].app[0] emergencyVariate:vector ETV
attr recordingmode vector
attr title "Exponential variate samples"
vector 75 LoRaNetworkTest.loRaNodes[23].app[0] emergencyVariate:vector ETV
attr recordingmode vector
attr title "Exponential variate samples"
vector 76 LoRaNetworkTest.loRaNodes[32].app[0] emergencyVariate:vector ETV
attr recordingmode vector
attr title "Exponential variate samples"
vector 77 LoRaNetworkTest.loRaNodes[68].app[0] emergencyVariate:vector ETV
attr recordingmode vector
attr title "Exponential variate samples"
vector 78 LoRaNetworkTest.loRaNodes[67].app[0] emergencyVariate:vector ETV
attr recordingmode vector
attr title "Exponential variate samples"
vector 79 LoRaNetworkTest.loRaNodes[46].app[0] emergencyVariate:vector ETV
attr recordingmode vector
attr title "Exponential variate samples"
0	10706	61.18838728064	1
0	10706	61.18838728064	0
0	10909	69.58813914727	1
0	10909	69.58813914727	0
0	11411	83.71112438364	1
0	11411	83.71112438364	0
0	12067	127.54179447527	1
0	12067	127.54179447527	0
0	12669	186.15975044176	1
0	12669	186.15975044176	0
0	13234	189.45649731808	1
0	13234	189.45649731808	0
0	14048	191.74790542038	1
0	14048	191.74790542038	0
0	15073	196.26773228152	1
0	15073	196.26773228152	0
0	15587	199.16763859626	1
0	15587	199.16763859626	0
0	15959	202.90409985549	1
0	15959	202.90409985549	0
0	16812	207.06599244766	1
0	16812	207.06599244766	0
0	17683	211.98025528334	1
0	17683	211.98025528334	0
0	18456	218.44148786383	1
0	18456	218.44148786383	0
0	20286	228.05252660993	1
0	20286	228.05252660993	0
0	20426	230.013552259	1
0	20426	230.013552259	0
0	20625	231.80209217876	1
0	20809	233.03952724622	0
0	21045	234.28483621447	1
0	21143	235.47067794877	0
0	22046	249.37178489767	1
0	22046	249.37178489767	0
0	22438	251.9010234069	1
0	22438	251.9010234069	0
0	22620	257.45550938788	1
0	22620	257.45550938788	0
0	23361	269.94097197165	1
0	23361	269.94097197165	0
0	23963	275.86357535165	1
0	23963	275.86357535165	0
0	24153	301.59907407988	1
0	24153	301.59907407988	0
0	24521	330.60566978519	1
0	24521	330.60566978519	0
0	24823	363.03550940811	1
0	24823	363.03550940811	0
0	25236	369.36389076237	1
0	25236	369.36389076237	0
0	25991	372.41778822599	1
0	25991	372.41778822599	0
0	26596	378.26295715586	1
0	26596	378.26295715586	0
0	26826	380.33054385751	1
0	26826	380.33054385751	0
0	27080	385.21971503168	1
0	27080	385.21971503168	0
0	27484	387.04808672275	1
0	27484	387.04808672275	0
0	28006	390.72134336852	1
0	28006	390.72134336852	0
0	28495	393.41132359548	1
0	28495	393.41132359548	0
0	29233	396.62237529148	1
0	29233	396.62237529148	0
0	29848	399.61184500209	1
0	29848	399.61184500209	0
0	30519	405.50364636095	1
0	30519	405.50364636095	0
0	30925	408.7063620298	1
0	30925	408.7063620298	0
0	31423	415.14826505239	1
0	31423	415.14826505239	0
0	31835	421.06850855522	1
0	31835	421.06850855522	0
0	32310	422.82445575654	1
0	32310	422.82445575654	0
0	32728	425.46174213981	1
0	32728	425.46174213981	0
0	33256	429.0782089573	1
0	33256	429.0782089573	0
0	33995	436.51230892322	1
0	33995	436.51230892322	0
0	34164	440.4552917467	1
0	34164	440.4552917467	0
0	34540	443.03045696376	1
0	34540	443.03045696376	0
0	34721	444.72897319253	1
0	34721	444.72897319253	0
0	35016	453.15280721276	1
0	35016	453.15280721276	0
0	35401	463.98571781787	1
0	35401	463.98571781787	0
0	35681	469.43277436524	1
0	35681	469.43277436524	0
0	35950	472.75432114435	1
0	35955	472.94617572467	0
0	36217	476.06843733935	1
0	36217	476.06843733935	0
0	37120	536.73582584646	1
0	37120	536.73582584646	0
0	38064	555.11419883851	1
0	38064	555.11419883851	0
0	38349	563.51170659798	1
0	38349	563.51170659798	0
0	38957	566.27164315044	1
0	38957	566.27164315044	0
0	39588	571.79981166451	1
0	39588	571.79981166451	0
0	40193	576.65407790136	1
0	40193	576.65407790136	0
0	40766	581.77985621749	1
0	40766	581.77985621749	0
0	41020	584.00467356321	1
0	41042	584.06807878876	0
0	41296	586.45328704423	1
0	41296	586.45328704423	0
0	41911	589.06043909963	1
0	41911	589.06043909963	0
0	42689	594.6812478247	1
0	42689	594.6812478247	0
0	43074	598.11859932838	1
0	43074	598.11859932838	0
0	43595	602.65393420963	1
0	43595	602.65393420963	0
0	43800	604.54117099993	1
0	43800	604.54117099993	0
0	44219	607.64543832073	1
0	44219	607.64543832073	0
0	45721	631.46735211642	1
0	45721	631.46735211642	0
0	45903	637.77774268313	1
0	45903	637.77774268313	0
0	46201	641.95320007193	1
0	46201	641.95320007193	0
0	46425	643.93346359797	1
0	46459	644.56854049744	0
0	46631	648.15201614711	1
0	46631	648.15201614711	0
0	47095	651.66680238554	1
0	47095	651.66680238554	0
0	47383	658.07876797591	1
0	47383	658.07876797591	0
0	47986	669.93501167058	1
0	47986	669.93501167058	0
0	48646	683.14507445698	1
0	48646	683.14507445698	0
0	49812	733.20488078004	1
0	49812	733.20488078004	0
0	50118	738.72552733073	1
0	50118	738.72552733073	0
0	50958	749.92388348372	1
0	50958	749.92388348372	0
0	51355	752.73611241426	1
0	51355	752.73611241426	0
0	52323	760.7564099744	1
0	52323	760.7564099744	0
0	52661	763.76037999477	1
0	52661	763.76037999477	0
0	53079	765.78100287644	1
0	53079	765.78100287644	0
0	53371	770.00043345183	1
0	53371	770.00043345183	0
0	53765	773.15193100669	1
0	53765	773.15193100669	0
0	54132	776.83496269759	1
0	54132	776.83496269759	0
0	54550	781.62929301096	1
0	54550	781.62929301096	0
0	55340	787.12857175081	1
0	55340	787.12857175081	0
0	55711	791.98933370311	1
0	55711	791.98933370311	0
0	56436	801.70250533842	1
0	56436	801.70250533842	0
0	56858	807.51918354217	1
0	56858	807.51918354217	0
0	57349	815.54075000668	1
0	57349	815.54075000668	0
0	58032	826.02830727573	1
0	58032	826.02830727573	0
0	58365	829.36801329848	1
0	58365	829.36801329848	0
0	58647	831.4328438728	1
0	58647	831.4328438728	0
0	58867	833.20113770929	1
0	58867	833.20113770929	0
0	59415	847.43070866021	1
0	59415	847.43070866021	0
0	60334	862.24587904968	1
0	60334	862.24587904968	0
0	60684	884.9199281027	1
0	60684	884.9199281027	0
0	60820	886.66941868409	1
0	60866	888.17796054959	0
0	61518	899.63776071421	1
0	61518	899.63776071421	0
0	62074	925.12443465357	1
0	62074	925.12443465357	0
0	62560	929.93835745144	1
0	62560	929.93835745144	0
0	63684	937.8375017679	1
0	63684	937.8375017679	0
0	64113	942.46551723337	1
0	64113	942.46551723337	0
0	64849	946.84525912624	1
0	64849	946.84525912624	0
0	65850	960.55321966614	1
0	65850	960.55321966614	0
0	66089	962.67418438595	1
0	66089	962.67418438595	0
0	66473	971.5162325951	1
0	66473	971.5162325951	0
0	66870	977.29787475694	1
0	66870	977.29787475694	0
0	67975	988.89695283502	1
0	67975	988.89695283502	0
0	68447	997.62654020075	1
0	68447	997.62654020075	0
0	69103	1009.06144582541	1
0	69103	1009.06144582541	0
0	69281	1018.66200671342	1
0	69281	1018.66200671342	0
0	69614	1022.54816695005	1
0	69614	1022.54816695005	0
0	70423	1028.23607282632	1
0	70423	1028.23607282632	0
0	70648	1030.46701739225	1
0	70648	1030.46701739225	0
0	70975	1032.42725991955	1
0	70975	1032.42725991955	0
0	71254	1034.09427632916	1
0	71254	1034.09427632916	0
0	71822	1041.3149093267	1
0	71822	1041.3149093267	0
0	72026	1047.0068700157	1
0	72026	1047.0068700157	0
0	72762	1063.18321021318	1
0	72762	1063.18321021318	0
0	73138	1066.26819031247	1
0	73138	1066.26819031247	0
0	73529	1072.18518975407	1
0	73529	1072.18518975407	0
0	73825	1091.58758331346	1
0	73825	1091.58758331346	0
0	74206	1106.3591815347	1
0	74206	1106.3591815347	0
0	74576	1112.28001931432	1
0	74580	1113.17555926678	0
0	75033	1120.99338535245	1
0	75033	1120.99338535245	0
0	75223	1126.6063674478	1
0	75223	1126.6063674478	0
0	75491	1129.13223527366	1
0	75491	1129.13223527366	0
0	75897	1131.54583355394	1
0	75936	1132.64444023773	0
0	76654	1140.61122289904	1
0	76654	1140.61122289904	0
0	77552	1150.6465104851	1
0	77552	1150.6465104851	0
0	77754	1155.01238991942	1
0	77754	1155.01238991942	0
0	78366	1158.71688020251	1
0	78366	1158.71688020251	0
0	78804	1161.3237266133	1
0	78804	1161.3237266133	0
0	79101	1165.93434012115	1
0	79101	1165.93434012115	0
0	79346	1168.25797047408	1
0	79346	1168.25797047408	0
0	80068	1180.82072338843	1
0	80068	1180.82072338843	0
0	80247	1186.03080234513	1
0	80247	1186.03080234513	0
0	80863	1194.27186926951	1
0	80863	1194.27186926951	0
0	81118	1196.71080347432	1
0	81118	1196.71080347432	0
0	81264	1199.31616955447	1
0	81264	1199.31616955447	0
0	81795	1203.97612515006	1
0	81795	1203.97612515006	0
0	82261	1211.10178232214	1
0	82261	1211.10178232214	0
0	82467	1215.34601272224	1
0	82467	1215.34601272224	0
0	83032	1221.18107643328	1
0	83032	1221.18107643328	0
0	83290	1223.60279900455	1
0	83330	1224.92094646707	0
0	84016	1234.84650219466	1
0	84016	1234.84650219466	0
0	84701	1240.16237884633	1
0	84701	1240.16237884633	0
0	84996	1244.39995809703	1
0	84996	1244.39995809703	0
0	85178	1249.21061195564	1
0	85178	1249.21061195564	0
0	85659	1257.86739733085	1
0	85659	1257.86739733085	0
0	86394	1286.01878284109	1
0	86394	1286.01878284109	0
0	86811	1299.17714211217	1
0	86811	1299.17714211217	0
0	87036	1303.69179227166	1
0	87036	1303.69179227166	0
0	87342	1307.71675931042	1
0	87342	1307.71675931042	0
0	87861	1314.12148704892	1
0	87861	1314.12148704892	0
0	88353	1322.47063444337	1
0	88353	1322.47063444337	0
0	88538	1325.54095027511	1
0	88538	1325.54095027511	0
0	89174	1336.74703076729	1
0	89174	1336.74703076729	0
0	89594	1338.95343399189	1
0	89594	1338.95343399189	0
0	89858	1343.86745554642	1
0	89858	1343.86745554642	0
0	90445	1346.43104487477	1
0	90445	1346.43104487477	0
0	91399	1361.85961762053	1
0	91399	1361.85961762053	0
0	91712	1367.72225239455	1
0	91712	1367.72225239455	0
0	92112	1371.57652380666	1
0	92112	1371.57652380666	0
0	92381	1375.16320976029	1
0	92381	1375.16320976029	0
0	92840	1379.34265149181	1
0	92840	1379.34265149181	0
0	93419	1385.47970105602	1
0	93419	1385.47970105602	0
0	93577	1387.58467559597	1
0	93577	1387.58467559597	0
0	93827	1389.87663441046	1
0	93827	1389.87663441046	0
0	94193	1391.78313748459	1
0	94280	1392.97303589851	0
0	94437	1396.10798636001	1
0	94437	1396.10798636001	0
0	94782	1401.75787499643	1
0	94782	1401.75787499643	0
0	95186	1415.87948929553	1
0	95186	1415.87948929553	0
0	95696	1419.12083748495	1
0	95696	1419.12083748495	0
0	96669	1431.63830277893	1
0	96669	1431.63830277893	0
0	97572	1443.2360476803	1
0	97572	1443.2360476803	0
0	98082	1462.37697700959	1
0	98082	1462.37697700959	0
0	98242	1465.18222844075	1
0	98242	1465.18222844075	0
0	98424	1477.19534358718	1
0	98424	1477.19534358718	0
0	98609	1479.05960397607	1
0	98609	1479.05960397607	0
0	99086	1482.88963705556	1
0	99086	1482.88963705556	0
0	101073	1517.82880853463	1
0	101073	1517.82880853463	0
0	101322	1519.67160073706	1
0	101322	1519.67160073706	0
0	101626	1523.98321173979	1
0	101626	1523.98321173979	0
0	101771	1527.50880824273	1
0	101771	1527.50880824273	0
0	102270	1535.42370519789	1
0	102270	1535.42370519789	0
0	102704	1539.63329206856	1
0	102704	1539.63329206856	0
0	103064	1545.04760147952	1
0	103460	1548.84972707112	0
0	103838	1554.47667356521	1
0	103838	1554.47667356521	0
0	104995	1566.74229339532	1
0	104995	1566.74229339532	0
0	105507	1576.32045637835	1
0	105507	1576.32045637835	0
0	106063	1582.543534225	1
0	106063	1582.543534225	0
0	106250	1584.74524369814	1
0	106250	1584.74524369814	0
0	106437	1587.59472145523	1
0	106437	1587.59472145523	0
0	107621	1608.30572996092	1
0	107621	1608.30572996092	0
0	107788	1612.01399863945	1
0	107788	1612.01399863945	0
0	108427	1624.31929314336	1
0	108427	1624.31929314336	0
0	108625	1627.28093546361	1
0	108625	1627.28093546361	0
0	109423	1637.31094860437	1
0	109423	1637.31094860437	0
0	109617	1642.39584746925	1
0	109617	1642.39584746925	0
0	109947	1646.40011902486	1
0	109947	1646.40011902486	0
0	110315	1649.96144164498	1
0	110315	1649.96144164498	0
0	110556	1655.66272110416	1
0	110556	1655.66272110416	0
0	110965	1668.54211644653	1
0	110965	1668.54211644653	0
0	112127	1688.52113867881	1
0	112127	1688.52113867881	0
0	112691	1695.3053799095	1
0	112691	1695.3053799095	0
0	113097	1697.9081157245	1
0	113097	1697.9081157245	0
0	113296	1702.59971918032	1
0	113296	1702.59971918032	0
0	113708	1706.72566183014	1
0	113708	1706.72566183014	0
0	113973	1708.76184971723	1
0	114006	1708.92344535909	0
0	114308	1718.23334778376	1
0	114308	1718.23334778376	0
0	114816	1724.36728117965	1
0	114816	1724.36728117965	0
0	115447	1732.75385738749	1
0	115447	1732.75385738749	0
0	115679	1738.34927604384	1
0	115679	1738.34927604384	0
0	115935	1741.71204004278	1
0	115935	1741.71204004278	0
0	116380	1749.49304305691	1
0	116380	1749.49304305691	0
0	117428	1770.04491358981	1
0	117428	1770.04491358981	0
0	117998	1777.19591623667	1
0	117998	1777.19591623667	0
0	119168	1793.26433975113	1
0	119168	1793.26433975113	0
0	119484	1797.85989041563	1
0	119484	1797.85989041563	0
0	119827	1804.03869711488	1
0	119827	1804.03869711488	0
0	120328	1809.4666345881	1
0	120328	1809.4666345881	0
0	120805	1821.30322886675	1
0	120805	1821.30322886675	0
0	121007	1826.40833775506	1
0	121007	1826.40833775506	0
0	121178	1830.36281164597	1
0	121178	1830.36281164597	0
0	121354	1833.61892401786	1
0	121354	1833.61892401786	0
0	121885	1837.99230465785	1
0	121885	1837.99230465785	0
0	122545	1843.21589955177	1
0	122545	1843.21589955177	0
0	122851	1848.10979487203	1
0	122851	1848.10979487203	0
0	123734	1858.52384955631	1
0	123734	1858.52384955631	0
0	123924	1863.50556117682	1
0	123924	1863.50556117682	0
0	124183	1867.57555155139	1
0	124183	1867.57555155139	0
0	124394	1869.42056585931	1
0	124394	1869.42056585931	0
0	124849	1876.67287923668	1
0	124849	1876.67287923668	0
0	125576	1899.00288294579	1
0	125576	1899.00288294579	0
0	125904	1902.72824692357	1
0	125904	1902.72824692357	0
0	126254	1906.71497580268	1
0	126254	1906.71497580268	0
0	126775	1917.75221202107	1
0	126775	1917.75221202107	0
0	127570	1922.14069573026	1
0	127570	1922.14069573026	0
0	127887	1924.45600484366	1
0	127930	1924.58363592229	0
0	128318	1932.34182205072	1
0	128318	1932.34182205072	0
0	128745	1945.92447578408	1
0	128745	1945.92447578408	0
0	129078	1950.40062726556	1
0	129078	1950.40062726556	0
0	129292	1953.15365006316	1
0	129635	1955.57279640713	2
0	129638	1955.67288012116	1
0	129646	1957.45370621133	0
0	130108	1965.25245802028	1
0	130108	1965.25245802028	0
0	130675	1978.21637268239	1
0	130675	1978.21637268239	0
0	131174	1985.85470291847	1
0	131174	1985.85470291847	0
0	131648	1994.31157063849	1
0	131648	1994.31157063849	0
0	131835	2001.05090629293	1
0	131835	2001.05090629293	0
0	132715	2008.84132891083	1
0	132715	2008.84132891083	0
0	133006	2011.37362038173	1
0	133006	2011.37362038173	0
0	133251	2016.32538384179	1
0	133251	2016.32538384179	0
0	133582	2018.38827424015	1
0	133582	2018.38827424015	0
0	134069	2022.48094114781	1
0	134069	2022.48094114781	0
0	134767	2028.71819113361	1
0	134767	2028.71819113361	0
0	135174	2030.45709872027	1
0	135174	2030.45709872027	0
0	135337	2034.60596237423	1
0	135337	2034.60596237423	0
0	136151	2051.65784740399	1
0	136151	2051.65784740399	0
0	136421	2054.47575099443	1
0	136421	2054.47575099443	0
0	137311	2065.19779231357	1
0	137311	2065.19779231357	0
0	137664	2083.26805838522	1
0	137664	2083.26805838522	0
0	138168	2091.54421425154	1
0	138168	2091.54421425154	0
0	139081	2102.80218942736	1
0	139081	2102.80218942736	0
0	139350	2105.36429973181	1
0	139350	2105.36429973181	0
0	139645	2108.25143769549	1
0	139645	2108.25143769549	0
0	140059	2110.95460428859	1
0	140221	2112.48488998404	0
0	140550	2116.79988773058	1
0	140550	2116.79988773058	0
0	140790	2118.65568639431	1
0	140790	2118.65568639431	0
0	141051	2133.47915357562	1
0	141051	2133.47915357562	0
0	141559	2138.72804101422	1
0	141559	2138.72804101422	0
0	141812	2147.01874070603	1
0	141812	2147.01874070603	0
0	142470	2160.95972583477	1
0	142470	2160.95972583477	0
0	143229	2178.51989771913	1
0	143229	2178.51989771913	0
0	143409	2181.38315960405	1
0	143409	2181.38315960405	0
0	143995	2188.20985825703	1
0	143995	2188.20985825703	0
0	144562	2196.87363942901	1
0	144562	2196.87363942901	0
0	145005	2200.94822471503	1
0	145005	2200.94822471503	0
0	145614	2204.75804449841	1
0	145614	2204.75804449841	0
0	146236	2209.36717659142	1
0	146236	2209.36717659142	0
0	147019	2218.80966098992	1
0	147019	2218.80966098992	0
0	147217	2220.55806285032	1
0	147217	2220.55806285032	0
0	147466	2223.93401385133	1
0	147466	2223.93401385133	0
0	148190	2228.36795320283	1
0	148190	2228.36795320283	0
0	148858	2237.29257457372	1
0	148858	2237.29257457372	0
0	149158	2249.46728622559	1
0	149158	2249.46728622559	0
0	149742	2254.81420131571	1
0	149742	2254.81420131571	0
0	150587	2275.83488296605	1
0	150587	2275.83488296605	0
0	151078	2280.73975950184	1
0	151078	2280.73975950184	0
0	151258	2284.3804903168	1
0	151258	2284.3804903168	0
0	151513	2287.19747366449	1
0	151513	2287.19747366449	0
0	151796	2290.69589570432	1
0	151796	2290.69589570432	0
0	151977	2293.5310295363	1
0	151977	2293.5310295363	0
0	152149	2297.83645149817	1
0	152149	2297.83645149817	0
0	152782	2309.23623210132	1
0	152782	2309.23623210132	0
0	153288	2312.62183089789	1
0	153288	2312.62183089789	0
0	154023	2335.28257116209	1
0	154023	2335.28257116209	0
0	154290	2343.68512350225	1
0	154290	2343.68512350225	0
0	154463	2346.45031907539	1
0	154463	2346.45031907539	0
0	155347	2361.1754043304	1
0	155347	2361.1754043304	0
0	155833	2370.33662661454	1
0	155833	2370.33662661454	0
0	156381	2377.46327131634	1
0	156381	2377.46327131634	0
0	156920	2384.7036953178	1
0	156920	2384.7036953178	0
0	157724	2393.9991956549	1
0	157724	2393.9991956549	0
0	157972	2399.73814984459	1
0	157972	2399.73814984459	0
0	159165	2407.84448301278	1
0	159165	2407.84448301278	0
0	159393	2409.5076692305	1
0	159393	2409.5076692305	0
0	159502	2411.15850896899	1
0	159593	2413.96289138569	0
0	159828	2419.98402542457	1
0	159828	2419.98402542457	0
0	160184	2422.40216745995	1
0	160184	2422.40216745995	0
0	160492	2428.46409771965	1
0	160492	2428.46409771965	0
0	160865	2432.44802960386	1
0	160865	2432.44802960386	0
0	161093	2434.47371728329	1
0	161204	2434.55773876105	0
0	161372	2436.19228937498	1
0	161372	2436.19228937498	0
0	161778	2440.5034659551	1
0	161778	2440.5034659551	0
0	162143	2448.64732291764	1
0	162143	2448.64732291764	0
0	163356	2477.62989794765	1
0	163356	2477.62989794765	0
0	163736	2484.00871859098	1
0	163736	2484.00871859098	0
0	164068	2486.82210278463	1
0	164068	2486.82210278463	0
0	164211	2489.36597701297	1
0	164211	2489.36597701297	0
0	164648	2497.02166344981	1
0	164648	2497.02166344981	0
0	164923	2504.30269032586	1
0	164923	2504.30269032586	0
0	165076	2506.75320730217	1
0	165076	2506.75320730217	0
0	165375	2510.81813855391	1
0	165375	2510.81813855391	0
0	166234	2523.29160072269	1
0	166234	2523.29160072269	0
0	166609	2526.51178107391	1
0	166609	2526.51178107391	0
0	166762	2539.11004223297	1
0	166762	2539.11004223297	0
0	167507	2561.09387468937	1
0	167507	2561.09387468937	0
0	168106	2565.00110613273	1
0	168106	2565.00110613273	0
0	168697	2569.98435600643	1
0	168697	2569.98435600643	0
0	169079	2580.02982434851	1
0	169079	2580.02982434851	0
0	169742	2582.85985355096	1
0	169742	2582.85985355096	0
0	169916	2585.65767358048	1
0	169916	2585.65767358048	0
0	170272	2588.19676512914	1
0	170272	2588.19676512914	0
0	170765	2600.54294944998	1
0	170765	2600.54294944998	0
0	171721	2605.64237172417	1
0	171721	2605.64237172417	0
0	171997	2610.38529572905	1
0	171997	2610.38529572905	0
0	172157	2612.23132109803	1
0	172157	2612.23132109803	0
0	172730	2620.92429004573	1
0	172730	2620.92429004573	0
0	175723	2668.27393480394	1
0	175723	2668.27393480394	0
0	175947	2670.165818319	1
0	176069	2670.86496157296	0
0	176971	2693.37992134972	1
0	176971	2693.37992134972	0
0	177205	2697.85487017862	1
0	177205	2697.85487017862	0
0	177376	2700.62564912527	1
0	177376	2700.62564912527	0
0	177581	2703.47638914608	1
0	177581	2703.47638914608	0
0	177738	2707.24828568302	1
0	177738	2707.24828568302	0
0	177958	2716.06370845997	1
0	177958	2716.06370845997	0
0	178413	2721.38666016997	1
0	178413	2721.38666016997	0
0	178827	2727.62500918694	1
0	178827	2727.62500918694	0
0	179010	2736.8275035173	1
0	179010	2736.8275035173	0
0	179472	2743.41699502401	1
0	179472	2743.41699502401	0
0	180275	2756.75709300478	1
0	180275	2756.75709300478	0
0	180820	2762.58851744148	1
0	180820	2762.58851744148	0
0	181067	2766.45917972483	1
0	181067	2766.45917972483	0
0	181377	2768.28167727787	1
0	181422	2769.12253465353	0
0	181892	2775.60678260893	1
0	181892	2775.60678260893	0
0	181986	2777.27602277245	1
0	181986	2777.27602277245	0
0	182401	2779.2530076007	1
0	182401	2779.2530076007	0
0	182862	2783.00479868549	1
0	182862	2783.00479868549	0
0	183051	2789.04907681582	1
0	183051	2789.04907681582	0
0	183388	2795.39138324756	1
0	183388	2795.39138324756	0
0	184235	2807.20575312711	1
0	184235	2807.20575312711	0
0	184518	2811.27202489539	1
0	184518	2811.27202489539	0
0	184865	2814.19384244813	1
0	184865	2814.19384244813	0
0	185262	2816.77176810868	1
0	185262	2816.77176810868	0
0	185640	2818.55005761493	1
0	185640	2818.55005761493	0
0	186285	2831.33127155033	1
0	186285	2831.33127155033	0
0	186890	2838.19248651577	1
0	186890	2838.19248651577	0
0	187221	2843.97646344171	1
0	187221	2843.97646344171	0
0	187759	2854.49918986295	1
0	187759	2854.49918986295	0
0	187899	2858.79265352169	1
0	187899	2858.79265352169	0
0	188327	2862.22243011887	1
0	188327	2862.22243011887	0
0	188618	2865.60958729201	1
0	188618	2865.60958729201	0
0	189103	2868.9452025028	1
0	189103	2868.9452025028	0
0	189440	2874.42910418012	1
0	189440	2874.42910418012	0
0	189607	2878.89096103311	1
0	189607	2878.89096103311	0
0	189799	2882.11045103628	1
0	189799	2882.11045103628	0
0	189965	2885.84524811756	1
0	189965	2885.84524811756	0
0	190488	2897.19835477322	1
0	190488	2897.19835477322	0
0	190796	2899.76742150641	1
0	190796	2899.76742150641	0
0	191306	2917.52044595283	1
0	191306	2917.52044595283	0
0	192360	2931.23044723559	1
0	192360	2931.23044723559	0
0	192939	2946.44183359029	1
0	192939	2946.44183359029	0
0	193224	2954.95124230284	1
0	193224	2954.95124230284	0
0	193302	2956.65875260769	1
0	193302	2956.65875260769	0
0	193639	2959.83105428196	1
0	193639	2959.83105428196	0
0	193988	2963.52914977156	1
0	193988	2963.52914977156	0
0	194344	2968.21873691444	1
0	194344	2968.21873691444	0
0	194577	2975.88416145069	1
0	194577	2975.88416145069	0
0	194947	2979.46540222609	1
0	194947	2979.46540222609	0
0	196525	2990.57701299828	1
0	196525	2990.57701299828	0
0	197461	3000.59813630159	1
0	197461	3000.59813630159	0
0	198786	3029.09306646717	1
0	198786	3029.09306646717	0
0	199450	3038.35914662025	1
0	199450	3038.35914662025	0
0	199761	3040.39376963651	1
0	199788	3040.43022335332	0
0	200056	3044.2413481732	1
0	200056	3044.2413481732	0
0	200318	3047.71096438736	1
0	200318	3047.71096438736	0
0	200621	3051.38844216107	1
0	200621	3051.38844216107	0
0	200961	3055.96219139398	1
0	200961	3055.96219139398	0
0	201303	3060.64441931519	1
0	201303	3060.64441931519	0
0	201566	3071.40028368478	1
0	201566	3071.40028368478	0
0	202227	3075.26745091662	1
0	202227	3075.26745091662	0
0	202670	3087.203619631	1
0	202670	3087.203619631	0
0	203997	3106.56405444555	1
0	203997	3106.56405444555	0
0	204313	3118.3565170068	1
0	204313	3118.3565170068	0
0	204510	3124.50274932469	1
0	204510	3124.50274932469	0
0	206108	3159.19481096693	1
0	206108	3159.19481096693	0
0	206285	3162.27193772606	1
0	206285	3162.27193772606	0
0	206579	3164.21150167962	1
0	206579	3164.21150167962	0
0	207157	3168.36645956003	1
0	207157	3168.36645956003	0
0	207311	3171.27854888809	1
0	207311	3171.27854888809	0
0	207656	3177.05790956256	1
0	207656	3177.05790956256	0
0	208501	3189.22868252628	1
0	208501	3189.22868252628	0
0	208717	3192.14433963592	1
0	208717	3192.14433963592	0
0	209187	3204.61287274304	1
0	209187	3204.61287274304	0
0	209326	3206.65370997339	1
0	209326	3206.65370997339	0
0	210010	3216.11638368099	1
0	210010	3216.11638368099	0
0	210235	3218.57790965975	1
0	210235	3218.57790965975	0
0	210589	3221.14857078277	1
0	210589	3221.14857078277	0
0	211307	3227.63284551438	1
0	211307	3227.63284551438	0
0	211530	3230.13013616443	1
0	211530	3230.13013616443	0
0	211755	3233.27858235728	1
0	211755	3233.27858235728	0
0	212166	3240.7786797023	1
0	212166	3240.7786797023	0
0	212865	3246.58323280799	1
0	212865	3246.58323280799	0
0	213057	3250.08983065851	1
0	213057	3250.08983065851	0
0	213421	3254.67435879268	1
0	213421	3254.67435879268	0
0	213672	3256.85751139932	1
0	213672	3256.85751139932	0
0	214104	3267.46409777274	1
0	214104	3267.46409777274	0
0	214880	3273.18036589667	1
0	214880	3273.18036589667	0
0	215891	3290.9146537149	1
0	215891	3290.9146537149	0
0	216388	3302.22173712352	1
0	216388	3302.22173712352	0
0	216752	3311.1849990058	1
0	216752	3311.1849990058	0
0	217295	3314.7557252877	1
0	217295	3314.7557252877	0
0	217638	3335.09467362191	1
0	217638	3335.09467362191	0
0	218064	3337.81043946531	1
0	218064	3337.81043946531	0
0	218228	3340.08827893476	1
0	218359	3341.84608704228	0
0	218618	3347.3849585727	1
0	218618	3347.3849585727	0
0	218902	3350.65536335887	1
0	219066	3353.35751688264	0
0	219165	3353.89346221546	1
0	219165	3353.89346221546	0
0	219501	3359.3571075256	1
0	219501	3359.3571075256	0
0	219687	3362.12167191477	1
0	219687	3362.12167191477	0
0	220025	3365.73300437848	1
0	220025	3365.73300437848	0
0	220255	3369.0508935457	1
0	220255	3369.0508935457	0
0	220521	3370.99831655471	1
0	220545	3371.49101879918	0
0	220857	3380.46280162909	1
0	220857	3380.46280162909	0
0	221188	3393.14769235082	1
0	221188	3393.14769235082	0
0	221453	3395.57401800829	1
0	221453	3395.57401800829	0
0	222066	3402.92238331668	1
0	222066	3402.92238331668	0
0	222253	3406.23431858614	1
0	222253	3406.23431858614	0
0	222435	3409.69163019782	1
0	222435	3409.69163019782	0
0	222963	3413.22871039314	1
0	222963	3413.22871039314	0
0	224032	3423.39051912745	1
0	224032	3423.39051912745	0
0	224459	3430.85693692825	1
0	224459	3430.85693692825	0
0	224787	3434.22685686395	1
0	224909	3434.94104300939	0
0	225305	3439.91752322479	1
0	225305	3439.91752322479	0
0	226273	3451.45189117775	1
0	226273	3451.45189117775	0
0	226799	3456.18964101185	1
0	226799	3456.18964101185	0
0	228216	3478.05572478933	1
0	228216	3478.05572478933	0
0	228457	3481.72632429247	1
0	228457	3481.72632429247	0
0	228740	3487.72441774043	1
0	228740	3487.72441774043	0
0	228884	3489.74240797082	1
0	228884	3489.74240797082	0
0	229217	3492.3298230082	1
0	229217	3492.3298230082	0
0	229750	3495.69448895108	1
0	229750	3495.69448895108	0
0	229916	3499.38545653384	1
0	229916	3499.38545653384	0
0	230250	3513.39920128935	1
0	230250	3513.39920128935	0
0	230504	3515.79143999821	1
0	230542	3515.9014825022	0
0	230941	3524.5513909821	1
0	230941	3524.5513909821	0
0	231761	3546.68396382419	1
0	231761	3546.68396382419	0
0	232194	3553.19278781242	1
0	232194	3553.19278781242	0
0	232432	3559.7681899968	1
0	232432	3559.7681899968	0
0	233114	3575.81463136444	1
0	233114	3575.81463136444	0
0	233654	3584.18005601877	1
0	233654	3584.18005601877	0
0	234111	3589.62816365578	1
0	234111	3589.62816365578	0
0	234364	3596.71651849351	1
0	234364	3596.71651849351	0
0	234823	3599.41421970607	1
0	234823	3599.41421970607	0
1	10706	61.18838728064	1.71213084436
1	10909	69.58813914727	1.71213137118
1	11411	83.71112438364	1.71213121037
1	12067	127.54179447527	1.7121325616
1	12669	186.15975044176	1.71213225184
1	13234	189.45649731808	1.71213091516
1	14048	191.74790542038	1.71213108251
1	15587	199.16763859626	1.71213006421
1	15959	202.90409985549	1.71213071585
1	16812	207.06599244766	1.71213044646
1	18456	218.44148786383	1.71212963586
1	20286	228.05252660993	1.7121320841
1	20426	230.013552259	1.71213007085
1	20809	233.03952724622	2.94956587601
1	21143	235.47067794877	2.89797205201
1	22438	251.9010234069	1.71213011021
1	22620	257.45550938788	1.71212967709
1	23361	269.94097197165	1.7121312231
1	23963	275.86357535165	1.71213139551
1	24153	301.59907407988	1.71213166486
1	24521	330.60566978519	1.7121341676
1	24823	363.03550940811	1.71213024246
1	25236	369.36389076237	1.71212974944
1	25991	372.41778822599	1.71213091516
1	26596	378.26295715586	1.7121318279
1	26826	380.33054385751	1.71213006421
1	27080	385.21971503168	1.7121300168
1	27484	387.04808672275	1.71212974784
1	28006	390.72134336852	1.71213044938
1	28495	393.41132359548	1.7121303759
1	29233	396.62237529148	1.71213009842
1	29848	399.61184500209	1.71213093642
1	30519	405.50364636095	1.71213108251
1	30925	408.7063620298	1.71213120609
1	31423	415.14826505239	1.71213009762
1	31835	421.06850855522	1.71213105721
1	32310	422.82445575654	1.71212963586
1	32728	425.46174213981	1.71213007085
1	33256	429.0782089573	1.71213080855
1	33995	436.51230892322	1.71213011021
1	34164	440.4552917467	1.71213040136
1	34540	443.03045696376	1.7121307234
1	35016	453.15280721276	1.71213295046
1	35401	463.98571781787	1.71212967709
1	35681	469.43277436524	1.71213031771
1	35955	472.94617572467	1.9039859515
1	36217	476.06843733935	1.71213121037
1	37120	536.73582584646	1.7121316636
1	38064	555.11419883851	1.71213006421
1	38349	563.51170659798	1.71213091516
1	38957	566.27164315044	1.71212974784
1	39588	571.79981166451	1.7121311553
1	40193	576.65407790136	1.71213274646
1	41042	584.06807878876	1.77553583427
1	41296	586.45328704423	1.71213059027
1	42689	594.6812478247	1.71213071585
1	43074	598.11859932838	1.71212963586
1	43595	602.65393420963	1.71213027146
1	43800	604.54117099993	1.71213124922
1	45721	631.46735211642	1.71213040136
1	45903	637.77774268313	1.71213007085
1	46201	641.95320007193	1.71213093642
1	46459	644.56854049744	2.34720736861
1	46631	648.15201614711	1.71213031771
1	47095	651.66680238554	1.71213044646
1	47383	658.07876797591	1.71213011021
1	47986	669.93501167058	1.71213121037
1	48646	683.14507445698	1.71213139551
1	49812	733.20488078004	1.71213350561
1	50118	738.72552733073	1.71212967709
1	50958	749.92388348372	1.71213091516
1	52323	760.7564099744	1.7121300168
1	52661	763.76037999477	1.71212974784
1	53079	765.78100287644	1.71213024442
1	53371	770.00043345183	1.71213060872
1	53765	773.15193100669	1.71212963586
1	54132	776.83496269759	1.71213120609
1	55340	787.12857175081	1.71212974944
1	55711	791.98933370311	1.71213027146
1	56436	801.70250533842	1.71213042016
1	56858	807.51918354217	1.7121303759
1	57349	815.54075000668	1.71213007085
1	58032	826.02830727573	1.71213031771
1	58365	829.36801329848	1.71213011021
1	58867	833.20113770929	1.71213044646
1	59415	847.43070866021	1.71213199788
1	60334	862.24587904968	1.7121349672
1	60684	884.9199281027	1.71213166486
1	60866	888.17796054959	3.22067250821
1	61518	899.63776071421	1.71213139551
1	62074	925.12443465357	1.71213006421
1	62560	929.93835745144	1.71212967709
1	63684	937.8375017679	1.7121300168
1	64113	942.46551723337	1.71212974784
1	64849	946.84525912624	1.71213009842
1	65850	960.55321966614	1.71213009762
1	66089	962.67418438595	1.71213024442
1	66473	971.5162325951	1.71213108251
1	66870	977.29787475694	1.71213084436
1	67975	988.89695283502	1.71213257485
1	68447	997.62654020075	1.71213046914
1	69103	1009.06144582541	1.71213042016
1	69281	1018.66200671342	1.71213044646
1	69614	1022.54816695005	1.71213040136
1	70423	1028.23607282632	1.71212963586
1	70648	1030.46701739225	1.71213059027
1	70975	1032.42725991955	1.71213011021
1	71254	1034.09427632916	1.71213121037
1	71822	1041.3149093267	1.71213031771
1	72026	1047.0068700157	1.7121307234
1	72762	1063.18321021318	1.7121325616
1	73138	1066.26819031247	1.71213064271
1	73529	1072.18518975407	1.71213139551
1	73825	1091.58758331346	1.71212974944
1	74206	1106.3591815347	1.71213093642
1	74580	1113.17555926678	2.60767367956
1	75033	1120.99338535245	1.71212974784
1	75223	1126.6063674478	1.71213024246
1	75491	1129.13223527366	1.71213006421
1	75936	1132.64444023773	2.81073636088
1	76654	1140.61122289904	1.71213060003
1	77552	1150.6465104851	1.71213009762
1	77754	1155.01238991942	1.71213071585
1	78366	1158.71688020251	1.7121300168
1	79101	1165.93434012115	1.71213157244
1	79346	1168.25797047408	1.71213120609
1	80068	1180.82072338843	1.71213042016
1	80247	1186.03080234513	1.71213024442
1	80863	1194.27186926951	1.71213111705
1	81118	1196.71080347432	1.71213058985
1	81264	1199.31616955447	1.71213040136
1	81795	1203.97612515006	1.71213059027
1	82261	1211.10178232214	1.71212963586
1	83032	1221.18107643328	1.71213105721
1	83330	1224.92094646707	3.03027817919
1	84016	1234.84650219466	1.7121332274
1	84701	1240.16237884633	1.71213044646
1	84996	1244.39995809703	1.71213060872
1	85178	1249.21061195564	1.71213011021
1	85659	1257.86739733085	1.71213064271
1	86394	1286.01878284109	1.71212974944
1	87036	1303.69179227166	1.71213093642
1	87342	1307.71675931042	1.71212967709
1	87861	1314.12148704892	1.71213060003
1	88353	1322.47063444337	1.71213044938
1	88538	1325.54095027511	1.71213009762
1	89174	1336.74703076729	1.71213009842
1	89594	1338.95343399189	1.71213138855
1	89858	1343.86745554642	1.7121300168
1	90445	1346.43104487477	1.71213031771
1	91399	1361.85961762053	1.71213350561
1	91712	1367.72225239455	1.71213006421
1	92112	1371.57652380666	1.71213007085
1	92381	1375.16320976029	1.71213024442
1	92840	1379.34265149181	1.71213111705
1	93419	1385.47970105602	1.71213121037
1	93577	1387.58467559597	1.71213027146
1	93827	1389.87663441046	1.71213042016
1	94280	1392.97303589851	2.90202900377
1	94437	1396.10798636001	1.71213105721
1	94782	1401.75787499643	1.71213084436
1	95186	1415.87948929553	1.71213040136
1	95696	1419.12083748495	1.71213060872
1	96669	1431.63830277893	1.71213011021
1	98242	1465.18222844075	1.71212974944
1	98424	1477.19534358718	1.71212963586
1	98609	1479.05960397607	1.71212967709
1	99086	1482.88963705556	1.71213225184
1	101073	1517.82880853463	1.71213009842
1	101626	1523.98321173979	1.7121316636
1	101771	1527.50880824273	1.7121303759
1	102270	1535.42370519789	1.71213046914
1	102704	1539.63329206856	1.71213031771
1	103460	1548.84972707112	5.51425716404
1	103838	1554.47667356521	1.71213007085
1	105507	1576.32045637835	1.71213120609
1	106063	1582.543534225	1.71213105721
1	106250	1584.74524369814	1.71213006421
1	106437	1587.59472145523	1.71213027146
1	107621	1608.30572996092	1.7121349672
1	107788	1612.01399863945	1.71213060872
1	108427	1624.31929314336	1.71213044646
1	108625	1627.28093546361	1.71213011021
1	109423	1637.31094860437	1.71213064271
1	109617	1642.39584746925	1.71213071667
1	109947	1646.40011902486	1.71212974944
1	110315	1649.96144164498	1.71213059027
1	110556	1655.66272110416	1.71212967709
1	110965	1668.54211644653	1.71212963586
1	112691	1695.3053799095	1.71213009842
1	113097	1697.9081157245	1.71213040136
1	113296	1702.59971918032	1.7121303759
1	113708	1706.72566183014	1.71213024246
1	114006	1708.92344535909	1.873726111
1	114308	1718.23334778376	1.7121300168
1	115447	1732.75385738749	1.71213350561
1	115679	1738.34927604384	1.71213024442
1	115935	1741.71204004278	1.71213007085
1	116380	1749.49304305691	1.71213031771
1	117428	1770.04491358981	1.71213006421
1	117998	1777.19591623667	1.71213105721
1	119168	1793.26433975113	1.7121307234
1	119484	1797.85989041563	1.71213027146
1	119827	1804.03869711488	1.71213011021
1	120328	1809.4666345881	1.71213009762
1	120805	1821.30322886675	1.71213044646
1	121007	1826.40833775506	1.71213084436
1	121178	1830.36281164597	1.71212967709
1	121354	1833.61892401786	1.71212974944
1	121885	1837.99230465785	1.7121311553
1	122851	1848.10979487203	1.71212974784
1	123734	1858.52384955631	1.71213213986
1	123924	1863.50556117682	1.71213166486
1	124183	1867.57555155139	1.71213158775
1	124394	1869.42056585931	1.71213040136
1	124849	1876.67287923668	1.71213060003
1	125576	1899.00288294579	1.71213138855
1	125904	1902.72824692357	1.71213009842
1	126254	1906.71497580268	1.71213044938
1	126775	1917.75221202107	1.71213100161
1	127570	1922.14069573026	1.71213031771
1	127930	1924.58363592229	1.83976114948
1	128318	1932.34182205072	1.71213024246
1	128745	1945.92447578408	1.71213042016
1	129078	1950.40062726556	1.7121300168
1	129638	1955.67288012116	4.23136077385
1	129646	1957.45370621133	3.59304088671
1	130108	1965.25245802028	1.71213105721
1	130675	1978.21637268239	1.71213024442
1	131174	1985.85470291847	1.71213476987
1	131648	1994.31157063849	1.71213060872
1	131835	2001.05090629293	1.71213009762
1	132715	2008.84132891083	1.71213071667
1	133006	2011.37362038173	1.7121311553
1	133251	2016.32538384179	1.71213027146
1	133582	2018.38827424015	1.71213084436
1	134069	2022.48094114781	1.71212974944
1	134767	2028.71819113361	1.7121307234
1	135174	2030.45709872027	1.71213059027
1	135337	2034.60596237423	1.71212974784
1	136151	2051.65784740399	1.71213040136
1	136421	2054.47575099443	1.71212967709
1	137311	2065.19779231357	1.71212963586
1	138168	2091.54421425154	1.71213044938
1	139081	2102.80218942736	1.71213060003
1	139350	2105.36429973181	1.71213137118
1	139645	2108.25143769549	1.71213309385
1	140221	2112.48488998404	3.24241752335
1	140550	2116.79988773058	1.71213031771
1	140790	2118.65568639431	1.71213009842
1	141051	2133.47915357562	1.71213007085
1	141559	2138.72804101422	1.71213006421
1	141812	2147.01874070603	1.7121300168
1	142470	2160.95972583477	1.71213024442
1	143229	2178.51989771913	1.71213060872
1	143409	2181.38315960405	1.71213009762
1	143995	2188.20985825703	1.71213071585
1	144562	2196.87363942901	1.71213027146
1	145005	2200.94822471503	1.71213111705
1	145614	2204.75804449841	1.71213044646
1	146236	2209.36717659142	1.71213059027
1	147019	2218.80966098992	1.71212974944
1	147217	2220.55806285032	1.71213011021
1	147466	2223.93401385133	1.71212974784
1	148858	2237.29257457372	1.71213124922
1	149158	2249.46728622559	1.71212963586
1	149742	2254.81420131571	1.71213046914
1	150587	2275.83488296605	1.71213100161
1	151078	2280.73975950184	1.71213060003
1	151513	2287.19747366449	1.71213044938
1	151796	2290.69589570432	1.71213210315
1	151977	2293.5310295363	1.71213058985
1	152149	2297.83645149817	1.71213031771
1	152782	2309.23623210132	1.71213007085
1	153288	2312.62183089789	1.71213006421
1	154023	2335.28257116209	1.71213024246
1	154290	2343.68512350225	1.71213009842
1	154463	2346.45031907539	1.7121300168
1	155347	2361.1754043304	1.71213321985
1	155833	2370.33662661454	1.71213009762
1	156381	2377.46327131634	1.71213044646
1	156920	2384.7036953178	1.7121313217
1	157724	2393.9991956549	1.71213011021
1	157972	2399.73814984459	1.71212974944
1	159165	2407.84448301278	1.71212974784
1	159393	2409.5076692305	1.71213139551
1	159828	2419.98402542457	1.71213027146
1	160184	2422.40216745995	1.71213158775
1	160492	2428.46409771965	1.7121303759
1	160865	2432.44802960386	1.71213321777
1	161204	2434.55773876105	1.7961519469
1	161372	2436.19228937498	1.71213091516
1	161778	2440.5034659551	1.71213105721
1	162143	2448.64732291764	1.71213100161
1	163356	2477.62989794765	1.71213060003
1	163736	2484.00871859098	1.71213292416
1	164068	2486.82210278463	1.7121318279
1	164211	2489.36597701297	1.71213007085
1	164648	2497.02166344981	1.71213006421
1	164923	2504.30269032586	1.71213031771
1	165076	2506.75320730217	1.71212963586
1	165375	2510.81813855391	1.71213058985
1	166234	2523.29160072269	1.71212967709
1	166609	2526.51178107391	1.71213177056
1	166762	2539.11004223297	1.7121300168
1	167507	2561.09387468937	1.71213009762
1	168106	2565.00110613273	1.71213093642
1	168697	2569.98435600643	1.71213199788
1	169079	2580.02982434851	1.71213044646
1	169742	2582.85985355096	1.71213011021
1	169916	2585.65767358048	1.71212974944
1	170272	2588.19676512914	1.71213009842
1	170765	2600.54294944998	1.71212974784
1	171721	2605.64237172417	1.71213274842
1	171997	2610.38529572905	1.7121311553
1	172157	2612.23132109803	1.7121312231
1	172730	2620.92429004573	1.71213046914
1	175723	2668.27393480394	1.71213100161
1	176069	2670.86496157296	2.41127332481
1	176971	2693.37992134972	1.71213210315
1	177376	2700.62564912527	1.71213024246
1	177581	2703.47638914608	1.71213031771
1	177738	2707.24828568302	1.71212963586
1	177958	2716.06370845997	1.71213058985
1	178413	2721.38666016997	1.7121300168
1	178827	2727.62500918694	1.71213358651
1	179010	2736.8275035173	1.71213093642
1	179472	2743.41699502401	1.71212967709
1	180275	2756.75709300478	1.71213040136
1	180820	2762.58851744148	1.7121313217
1	181067	2766.45917972483	1.71213009762
1	181422	2769.12253465353	2.55298782212
1	181892	2775.60678260893	1.71213009842
1	181986	2777.27602277245	1.71213024442
1	182401	2779.2530076007	1.71213064271
1	182862	2783.00479868549	1.71213288802
1	183051	2789.04907681582	1.7121311553
1	183388	2795.39138324756	1.71213124922
1	184235	2807.20575312711	1.71212974784
1	184518	2811.27202489539	1.71213071667
1	184865	2814.19384244813	1.7121312231
1	185262	2816.77176810868	1.71212974944
1	185640	2818.55005761493	1.71213158391
1	186285	2831.33127155033	1.71213027146
1	186890	2838.19248651577	1.7121307234
1	187221	2843.97646344171	1.71213091516
1	187759	2854.49918986295	1.71213389951
1	187899	2858.79265352169	1.71213007085
1	188618	2865.60958729201	1.71213111705
1	189103	2868.9452025028	1.71213100161
1	189440	2874.42910418012	1.71213044938
1	189607	2878.89096103311	1.71213024246
1	189799	2882.11045103628	1.71213006421
1	189965	2885.84524811756	1.71212963586
1	190488	2897.19835477322	1.71213031771
1	190796	2899.76742150641	1.7121300168
1	191306	2917.52044595283	1.71213042016
1	192360	2931.23044723559	1.71212967709
1	192939	2946.44183359029	1.71213040136
1	193224	2954.95124230284	1.71213009762
1	193302	2956.65875260769	1.71213064271
1	193639	2959.83105428196	1.71213044646
1	194344	2968.21873691444	1.71213080855
1	194577	2975.88416145069	1.71213371437
1	194947	2979.46540222609	1.71212974784
1	196525	2990.57701299828	1.71213158391
1	197461	3000.59813630159	1.71212974944
1	198786	3029.09306646717	1.71213091516
1	199450	3038.35914662025	1.7121316636
1	199788	3040.43022335332	1.74858456117
1	200056	3044.2413481732	1.71213111705
1	200318	3047.71096438736	1.7121307234
1	200621	3051.38844216107	1.71213024246
1	201303	3060.64441931519	1.71212963586
1	201566	3071.40028368478	1.7121300168
1	202670	3087.203619631	1.71213060003
1	203997	3106.56405444555	1.71213309385
1	204313	3118.3565170068	1.71213042016
1	206108	3159.19481096693	1.71213009762
1	206285	3162.27193772606	1.7121303759
1	206579	3164.21150167962	1.71213108251
1	207157	3168.36645956003	1.71213160204
1	207311	3171.27854888809	1.71213071667
1	207656	3177.05790956256	1.71213046914
1	208501	3189.22868252628	1.71213213323
1	208717	3192.14433963592	1.71212974784
1	209187	3204.61287274304	1.71213158775
1	209326	3206.65370997339	1.71212974944
1	210010	3216.11638368099	1.7121316636
1	210235	3218.57790965975	1.71213024442
1	210589	3221.14857078277	1.71213105721
1	211307	3227.63284551438	1.71213260242
1	211530	3230.13013616443	1.71213024246
1	211755	3233.27858235728	1.7121311553
1	212166	3240.7786797023	1.71213100161
1	212865	3246.58323280799	1.7121300168
1	213057	3250.08983065851	1.71212963586
1	213421	3254.67435879268	1.71213031771
1	213672	3256.85751139932	1.71213027146
1	214104	3267.46409777274	1.71213060003
1	214880	3273.18036589667	1.71213007085
1	215891	3290.9146537149	1.71213044938
1	216388	3302.22173712352	1.71213060872
1	216752	3311.1849990058	1.71213058985
1	217295	3314.7557252877	1.71213138855
1	217638	3335.09467362191	1.71213042016
1	218064	3337.81043946531	1.71213009762
1	218359	3341.84608704228	3.46993855398
1	218618	3347.3849585727	1.71213121037
1	219066	3353.35751688264	4.41428667048
1	219165	3353.89346221546	1.71213166486
1	219501	3359.3571075256	1.71213071585
1	219687	3362.12167191477	1.71213124922
1	220025	3365.73300437848	1.71213158391
1	220255	3369.0508935457	1.71212967709
1	220545	3371.49101879918	2.20483346757
1	220857	3380.46280162909	1.71213046914
1	221188	3393.14769235082	1.71212974944
1	221453	3395.57401800829	1.71213071667
1	222066	3402.92238331668	1.71213158775
1	222253	3406.23431858614	1.71213111705
1	222435	3409.69163019782	1.71213321777
1	222963	3413.22871039314	1.71213024442
1	224032	3423.39051912745	1.71213011021
1	224459	3430.85693692825	1.71213009842
1	224909	3434.94104300939	2.4263157813
1	225305	3439.91752322479	1.71213084436
1	226273	3451.45189117775	1.71213007085
1	226799	3456.18964101185	1.71213060003
1	228216	3478.05572478933	1.71213277546
1	228457	3481.72632429247	1.71213060872
1	228740	3487.72441774043	1.71213058985
1	229217	3492.3298230082	1.71213040136
1	229750	3495.69448895108	1.7121325616
1	229916	3499.38545653384	1.71213138855
1	230250	3513.39920128935	1.7121303759
1	230542	3515.9014825022	1.82217292415
1	230941	3524.5513909821	1.71213009762
1	231761	3546.68396382419	1.71213120609
1	232432	3559.7681899968	1.71212967709
1	233114	3575.81463136444	1.71213160204
1	233654	3584.18005601877	1.71212974784
1	234111	3589.62816365578	1.7121313217
1	234364	3596.71651849351	1.71213080855
1	234823	3599.41421970607	1.71213407644
2	10706	61.18838728064	1.71213084436
2	10909	69.58813914727	1.71213137118
2	11411	83.71112438364	1.71213121037
2	12067	127.54179447527	1.7121325616
2	12669	186.15975044176	1.71213225184
2	13234	189.45649731808	1.71213091516
2	14048	191.74790542038	1.71213108251
2	15587	199.16763859626	1.71213006421
2	15959	202.90409985549	1.71213071585
2	16812	207.06599244766	1.71213044646
2	18456	218.44148786383	1.71212963586
2	20286	228.05252660993	1.7121320841
2	20426	230.013552259	1.71213007085
2	20809	233.03952724622	2.94956587601
2	21143	235.47067794877	2.89797205201
2	22438	251.9010234069	1.71213011021
2	22620	257.45550938788	1.71212967709
2	23361	269.94097197165	1.7121312231
2	23963	275.86357535165	1.71213139551
2	24153	301.59907407988	1.71213166486
2	24521	330.60566978519	1.7121341676
2	24823	363.03550940811	1.71213024246
2	25236	369.36389076237	1.71212974944
2	25991	372.41778822599	1.71213091516
2	26596	378.26295715586	1.7121318279
2	26826	380.33054385751	1.71213006421
2	27080	385.21971503168	1.7121300168
2	27484	387.04808672275	1.71212974784
2	28006	390.72134336852	1.71213044938
2	28495	393.41132359548	1.7121303759
2	29233	396.62237529148	1.71213009842
2	29848	399.61184500209	1.71213093642
2	30519	405.50364636095	1.71213108251
2	30925	408.7063620298	1.71213120609
2	31423	415.14826505239	1.71213009762
2	31835	421.06850855522	1.71213105721
2	32310	422.82445575654	1.71212963586
2	32728	425.46174213981	1.71213007085
2	33256	429.0782089573	1.71213080855
2	33995	436.51230892322	1.71213011021
2	34164	440.4552917467	1.71213040136
2	34540	443.03045696376	1.7121307234
2	35016	453.15280721276	1.71213295046
2	35401	463.98571781787	1.71212967709
2	35681	469.43277436524	1.71213031771
2	35955	472.94617572467	1.9039859515
2	36217	476.06843733935	1.71213121037
2	37120	536.73582584646	1.7121316636
2	38064	555.11419883851	1.71213006421
2	38349	563.51170659798	1.71213091516
2	38957	566.27164315044	1.71212974784
2	39588	571.79981166451	1.7121311553
2	40193	576.65407790136	1.71213274646
2	41042	584.06807878876	1.77553583427
2	41296	586.45328704423	1.71213059027
2	42689	594.6812478247	1.71213071585
2	43074	598.11859932838	1.71212963586
2	43595	602.65393420963	1.71213027146
2	43800	604.54117099993	1.71213124922
2	45721	631.46735211642	1.71213040136
2	45903	637.77774268313	1.71213007085
2	46201	641.95320007193	1.71213093642
2	46459	644.56854049744	2.34720736861
2	46631	648.15201614711	1.71213031771
2	47095	651.66680238554	1.71213044646
2	47383	658.07876797591	1.71213011021
2	47986	669.93501167058	1.71213121037
2	48646	683.14507445698	1.71213139551
2	49812	733.20488078004	1.71213350561
2	50118	738.72552733073	1.71212967709
2	50958	749.92388348372	1.71213091516
2	52323	760.7564099744	1.7121300168
2	52661	763.76037999477	1.71212974784
2	53079	765.78100287644	1.71213024442
2	53371	770.00043345183	1.71213060872
2	53765	773.15193100669	1.71212963586
2	54132	776.83496269759	1.71213120609
2	55340	787.12857175081	1.71212974944
2	55711	791.98933370311	1.71213027146
2	56436	801.70250533842	1.71213042016
2	56858	807.51918354217	1.7121303759
2	57349	815.54075000668	1.71213007085
2	58032	826.02830727573	1.71213031771
2	58365	829.36801329848	1.71213011021
2	58867	833.20113770929	1.71213044646
2	59415	847.43070866021	1.71213199788
2	60334	862.24587904968	1.7121349672
2	60684	884.9199281027	1.71213166486
2	60866	888.17796054959	3.22067250821
2	61518	899.63776071421	1.71213139551
2	62074	925.12443465357	1.71213006421
2	62560	929.93835745144	1.71212967709
2	63684	937.8375017679	1.7121300168
2	64113	942.46551723337	1.71212974784
2	64849	946.84525912624	1.71213009842
2	65850	960.55321966614	1.71213009762
2	66089	962.67418438595	1.71213024442
2	66473	971.5162325951	1.71213108251
2	66870	977.29787475694	1.71213084436
2	67975	988.89695283502	1.71213257485
2	68447	997.62654020075	1.71213046914
2	69103	1009.06144582541	1.71213042016
2	69281	1018.66200671342	1.71213044646
2	69614	1022.54816695005	1.71213040136
2	70423	1028.23607282632	1.71212963586
2	70648	1030.46701739225	1.71213059027
2	70975	1032.42725991955	1.71213011021
2	71254	1034.09427632916	1.71213121037
2	71822	1041.3149093267	1.71213031771
2	72026	1047.0068700157	1.7121307234
2	72762	1063.18321021318	1.7121325616
2	73138	1066.26819031247	1.71213064271
2	73529	1072.18518975407	1.71213139551
2	73825	1091.58758331346	1.71212974944
2	74206	1106.3591815347	1.71213093642
2	74580	1113.17555926678	2.60767367956
2	75033	1120.99338535245	1.71212974784
2	75223	1126.6063674478	1.71213024246
2	75491	1129.13223527366	1.71213006421
2	75936	1132.64444023773	2.81073636088
2	76654	1140.61122289904	1.71213060003
2	77552	1150.6465104851	1.71213009762
2	77754	1155.01238991942	1.71213071585
2	78366	1158.71688020251	1.7121300168
2	79101	1165.93434012115	1.71213157244
2	79346	1168.25797047408	1.71213120609
2	80068	1180.82072338843	1.71213042016
2	80247	1186.03080234513	1.71213024442
2	80863	1194.27186926951	1.71213111705
2	81118	1196.71080347432	1.71213058985
2	81264	1199.31616955447	1.71213040136
2	81795	1203.97612515006	1.71213059027
2	82261	1211.10178232214	1.71212963586
2	83032	1221.18107643328	1.71213105721
2	83330	1224.92094646707	3.03027817919
2	84016	1234.84650219466	1.7121332274
2	84701	1240.16237884633	1.71213044646
2	84996	1244.39995809703	1.71213060872
2	85178	1249.21061195564	1.71213011021
2	85659	1257.86739733085	1.71213064271
2	86394	1286.01878284109	1.71212974944
2	87036	1303.69179227166	1.71213093642
2	87342	1307.71675931042	1.71212967709
2	87861	1314.12148704892	1.71213060003
2	88353	1322.47063444337	1.71213044938
2	88538	1325.54095027511	1.71213009762
2	89174	1336.74703076729	1.71213009842
2	89594	1338.95343399189	1.71213138855
2	89858	1343.86745554642	1.7121300168
2	90445	1346.43104487477	1.71213031771
2	91399	1361.85961762053	1.71213350561
2	91712	1367.72225239455	1.71213006421
2	92112	1371.57652380666	1.71213007085
2	92381	1375.16320976029	1.71213024442
2	92840	1379.34265149181	1.71213111705
2	93419	1385.47970105602	1.71213121037
2	93577	1387.58467559597	1.71213027146
2	93827	1389.87663441046	1.71213042016
2	94280	1392.97303589851	2.90202900377
2	94437	1396.10798636001	1.71213105721
2	94782	1401.75787499643	1.71213084436
2	95186	1415.87948929553	1.71213040136
2	95696	1419.12083748495	1.71213060872
2	96669	1431.63830277893	1.71213011021
2	98242	1465.18222844075	1.71212974944
2	98424	1477.19534358718	1.71212963586
2	98609	1479.05960397607	1.71212967709
2	99086	1482.88963705556	1.71213225184
2	101073	1517.82880853463	1.71213009842
2	101626	1523.98321173979	1.7121316636
2	101771	1527.50880824273	1.7121303759
2	102270	1535.42370519789	1.71213046914
2	102704	1539.63329206856	1.71213031771
2	103460	1548.84972707112	5.51425716404
2	103838	1554.47667356521	1.71213007085
2	105507	1576.32045637835	1.71213120609
2	106063	1582.543534225	1.71213105721
2	106250	1584.74524369814	1.71213006421
2	106437	1587.59472145523	1.71213027146
2	107621	1608.30572996092	1.7121349672
2	107788	1612.01399863945	1.71213060872
2	108427	1624.31929314336	1.71213044646
2	108625	1627.28093546361	1.71213011021
2	109423	1637.31094860437	1.71213064271
2	109617	1642.39584746925	1.71213071667
2	109947	1646.40011902486	1.71212974944
2	110315	1649.96144164498	1.71213059027
2	110556	1655.66272110416	1.71212967709
2	110965	1668.54211644653	1.71212963586
2	112691	1695.3053799095	1.71213009842
2	113097	1697.9081157245	1.71213040136
2	113296	1702.59971918032	1.7121303759
2	113708	1706.72566183014	1.71213024246
2	114006	1708.92344535909	1.873726111
2	114308	1718.23334778376	1.7121300168
2	115447	1732.75385738749	1.71213350561
2	115679	1738.34927604384	1.71213024442
2	115935	1741.71204004278	1.71213007085
2	116380	1749.49304305691	1.71213031771
2	117428	1770.04491358981	1.71213006421
2	117998	1777.19591623667	1.71213105721
2	119168	1793.26433975113	1.7121307234
2	119484	1797.85989041563	1.71213027146
2	119827	1804.03869711488	1.71213011021
2	120328	1809.4666345881	1.71213009762
2	120805	1821.30322886675	1.71213044646
2	121007	1826.40833775506	1.71213084436
2	121178	1830.36281164597	1.71212967709
2	121354	1833.61892401786	1.71212974944
2	121885	1837.99230465785	1.7121311553
2	122851	1848.10979487203	1.71212974784
2	123734	1858.52384955631	1.71213213986
2	123924	1863.50556117682	1.71213166486
2	124183	1867.57555155139	1.71213158775
2	124394	1869.42056585931	1.71213040136
2	124849	1876.67287923668	1.71213060003
2	125576	1899.00288294579	1.71213138855
2	125904	1902.72824692357	1.71213009842
2	126254	1906.71497580268	1.71213044938
2	126775	1917.75221202107	1.71213100161
2	127570	1922.14069573026	1.71213031771
2	127930	1924.58363592229	1.83976114948
2	128318	1932.34182205072	1.71213024246
2	128745	1945.92447578408	1.71213042016
2	129078	1950.40062726556	1.7121300168
2	129638	1955.67288012116	4.23136077385
2	129646	1957.45370621133	3.59304088671
2	130108	1965.25245802028	1.71213105721
2	130675	1978.21637268239	1.71213024442
2	131174	1985.85470291847	1.71213476987
2	131648	1994.31157063849	1.71213060872
2	131835	2001.05090629293	1.71213009762
2	132715	2008.84132891083	1.71213071667
2	133006	2011.37362038173	1.7121311553
2	133251	2016.32538384179	1.71213027146
2	133582	2018.38827424015	1.71213084436
2	134069	2022.48094114781	1.71212974944
2	134767	2028.71819113361	1.7121307234
2	135174	2030.45709872027	1.71213059027
2	135337	2034.60596237423	1.71212974784
2	136151	2051.65784740399	1.71213040136
2	136421	2054.47575099443	1.71212967709
2	137311	2065.19779231357	1.71212963586
2	138168	2091.54421425154	1.71213044938
2	139081	2102.80218942736	1.71213060003
2	139350	2105.36429973181	1.71213137118
2	139645	2108.25143769549	1.71213309385
2	140221	2112.48488998404	3.24241752335
2	140550	2116.79988773058	1.71213031771
2	140790	2118.65568639431	1.71213009842
2	141051	2133.47915357562	1.71213007085
2	141559	2138.72804101422	1.71213006421
2	141812	2147.01874070603	1.7121300168
2	142470	2160.95972583477	1.71213024442
2	143229	2178.51989771913	1.71213060872
2	143409	2181.38315960405	1.71213009762
2	143995	2188.20985825703	1.71213071585
2	144562	2196.87363942901	1.71213027146
2	145005	2200.94822471503	1.71213111705
2	145614	2204.75804449841	1.71213044646
2	146236	2209.36717659142	1.71213059027
2	147019	2218.80966098992	1.71212974944
2	147217	2220.55806285032	1.71213011021
2	147466	2223.93401385133	1.71212974784
2	148858	2237.29257457372	1.71213124922
2	149158	2249.46728622559	1.71212963586
2	149742	2254.81420131571	1.71213046914
2	150587	2275.83488296605	1.71213100161
2	151078	2280.73975950184	1.71213060003
2	151513	2287.19747366449	1.71213044938
2	151796	2290.69589570432	1.71213210315
2	151977	2293.5310295363	1.71213058985
2	152149	2297.83645149817	1.71213031771
2	152782	2309.23623210132	1.71213007085
2	153288	2312.62183089789	1.71213006421
2	154023	2335.28257116209	1.71213024246
2	154290	2343.68512350225	1.71213009842
2	154463	2346.45031907539	1.7121300168
2	155347	2361.1754043304	1.71213321985
2	155833	2370.33662661454	1.71213009762
2	156381	2377.46327131634	1.71213044646
2	156920	2384.7036953178	1.7121313217
2	157724	2393.9991956549	1.71213011021
2	157972	2399.73814984459	1.71212974944
2	159165	2407.84448301278	1.71212974784
2	159393	2409.5076692305	1.71213139551
2	159828	2419.98402542457	1.71213027146
2	160184	2422.40216745995	1.71213158775
2	160492	2428.46409771965	1.7121303759
2	160865	2432.44802960386	1.71213321777
2	161204	2434.55773876105	1.7961519469
2	161372	2436.19228937498	1.71213091516
2	161778	2440.5034659551	1.71213105721
2	162143	2448.64732291764	1.71213100161
2	163356	2477.62989794765	1.71213060003
2	163736	2484.00871859098	1.71213292416
2	164068	2486.82210278463	1.7121318279
2	164211	2489.36597701297	1.71213007085
2	164648	2497.02166344981	1.71213006421
2	164923	2504.30269032586	1.71213031771
2	165076	2506.75320730217	1.71212963586
2	165375	2510.81813855391	1.71213058985
2	166234	2523.29160072269	1.71212967709
2	166609	2526.51178107391	1.71213177056
2	166762	2539.11004223297	1.7121300168
2	167507	2561.09387468937	1.71213009762
2	168106	2565.00110613273	1.71213093642
2	168697	2569.98435600643	1.71213199788
2	169079	2580.02982434851	1.71213044646
2	169742	2582.85985355096	1.71213011021
2	169916	2585.65767358048	1.71212974944
2	170272	2588.19676512914	1.71213009842
2	170765	2600.54294944998	1.71212974784
2	171721	2605.64237172417	1.71213274842
2	171997	2610.38529572905	1.7121311553
2	172157	2612.23132109803	1.7121312231
2	172730	2620.92429004573	1.71213046914
2	175723	2668.27393480394	1.71213100161
2	176069	2670.86496157296	2.41127332481
2	176971	2693.37992134972	1.71213210315
2	177376	2700.62564912527	1.71213024246
2	177581	2703.47638914608	1.71213031771
[...]
53	67301	983.50130337131	974.01992454112
53	77922	1156.27750373105	2230.0943082895
53	88805	1334.60572862201	1553.0244984358
53	101632	1525.79667786683	708.52030050545
53	113154	1700.88758880442	312.38666291804
53	125605	1899.57805109135	554.1883131681
53	137527	2081.55592800932	34.463774258591
53	149598	2253.85667369226	585.27162181373
53	160279	2426.75196734375	89.902777209337
53	170558	2599.96768674962	225.58168329521
53	184103	2806.12090592709	53.832672490898
53	194660	2978.11891087332	12.616316671669
53	206137	3160.55980735016	1390.5913237217
53	217502	3335.06577580789	59.715574845988
53	230111	3511.68707091345	483.02528852343
54	18655	219.09851835752	148.47949339454
54	32103	422.58394457571	767.03732026692
54	43203	599.3850836391	331.91250832593
54	54572	781.91866861883	584.45018725773
54	66302	971.50776454452	39.806326702879
54	78407	1158.73216612272	100.49152132438
54	88727	1334.30596168273	351.09888493956
54	102313	1537.84028016775	661.89455044861
54	117045	1761.52070509096	264.39365709534
54	129655	1961.38974014589	923.69988888747
54	143436	2182.94375479614	854.57046318188
54	159513	2413.42256942595	320.24331272767
54	174918	2649.53053095043	1540.985317503
54	186312	2831.49105783317	199.97698618394
54	197671	3006.1632960566	81.249281670333
54	213523	3256.0876382208	342.24389549658
54	225653	3443.2889657016	189.10377649198
55	18733	219.12631078653	250.42135911351
55	28197	391.98075321097	50.964438952293
55	46205	642.22133312883	226.36465759361
55	57476	818.15245164995	83.865682204468
55	68230	995.91440973161	519.43425588332
55	79527	1171.97891304766	669.87593922007
55	89899	1343.94899296148	45.444757549716
55	102126	1533.71157472875	253.5906738349
55	113748	1707.04971924809	139.84522608022
55	124947	1879.50862871169	38.50571928573
55	137362	2067.58901131807	255.74178074868
55	149438	2253.10207084657	334.02645249588
55	160869	2432.76158681415	515.09910352428
55	172506	2619.21215957659	915.59172679648
55	183639	2803.9295607406	144.25237117122
55	197170	2998.77980852758	289.04654466457
55	207513	3175.34577909342	347.72354065123
55	220639	3378.75067115995	2150.4627599406
55	232711	3573.66980292165	292.17398499724
56	18814	219.49198867695	581.24065007878
56	31194	414.83601845721	600.86178342813
56	46649	648.40912226047	2378.8728096821
56	58208	827.7678293581	1804.5035412741
56	72193	1055.15164347854	639.3586700868
56	83419	1229.1114992521	1046.1345328713
56	95813	1422.68740974272	493.7351163668
56	109131	1635.14417657963	526.79720034056
56	121712	1836.96086916929	385.39646842348
56	133434	2017.85782100311	826.60914788038
56	149027	2248.46128838835	538.76931076529
56	159854	2420.4277895917	1592.2550508272
56	170888	2601.19733687891	182.44064401219
56	188620	2865.7175948512	522.62252095884
56	200750	3054.91662586515	174.40136323338
56	213789	3263.90049851195	1233.351981411
56	225413	3441.17263521452	168.03872339303
57	18971	219.98304923441	638.02979308291
57	36044	475.71078413578	658.65671269969
57	47991	671.48688275365	674.52595319195
57	59241	845.93617569307	608.77731737731
57	69979	1025.98238462727	2381.2264034174
57	81392	1201.254000819	72.017015347756
57	93084	1382.36392986655	715.69197242122
57	105107	1569.9994202627	1066.2562791427
57	116224	1749.34103702651	1002.398085068
57	130971	1984.1425681486	526.03356149478
57	142337	2159.83013096722	107.724604471
57	153889	2335.01415468744	542.51566950307
57	166273	2524.00378515609	445.50809283289
57	178464	2724.23253332353	151.44337174497
57	191510	2921.77109078601	937.9817627113
57	203009	3096.3662883595	65.111315243522
57	215924	3297.04293566162	1469.3661711245
57	229954	3506.05603090317	67.141428658992
58	19133	220.71783558491	146.44448352722
58	34031	438.74316134534	635.63827103455
58	45591	629.75522171506	612.13862789241
58	57217	814.62166563009	127.36794506312
58	69405	1020.83603654869	415.66905765373
58	81125	1197.60403915311	127.00964492474
58	94978	1414.16735889417	471.27300444986
58	112883	1696.19598532314	416.64932206322
58	124185	1867.70843545795	1152.1171895556
58	136017	2049.94571700263	124.55871252397
58	147830	2226.90246559491	295.46252083916
58	158332	2404.53641123215	357.35583469138
58	168792	2576.09037409718	376.22637681509
58	179836	2755.04496260342	149.60311425776
58	192808	2944.72970318893	935.07869126879
58	205013	3142.39981613273	271.96188494774
58	217072	3313.76869450238	597.66299963152
58	228925	3490.61769260684	1078.977383015
59	19521	221.81894617876	1085.2073582238
59	28772	394.67019311289	903.54283108407
59	48657	687.69859748956	2074.2148351109
59	60686	884.95728804138	129.9910411951
59	72847	1064.55605966976	796.58948570694
59	85524	1256.15526668814	179.65935946521
59	96364	1430.64524071776	542.64936858533
59	109210	1635.59881796166	80.006154597092
59	123296	1855.56578735597	385.28383582589
59	135702	2045.83020137163	403.79285302738
59	147332	2222.43248537999	110.46811992763
59	158254	2404.04863058524	979.05121161114
59	169202	2580.97252503599	137.11141474796
59	182029	2777.54087695799	66.57019576618
59	193071	2954.94662196498	405.0664876791
59	205334	3153.81388022463	28.033708615131
59	218622	3348.94323021216	149.68608705039
59	230966	3526.07442849265	734.40208944963
60	19685	222.72427193922	2070.8465982077
60	34291	441.68139615435	1140.0591267698
60	44796	617.43297236641	367.94830954099
60	57799	825.14622788448	1183.2574295604
60	70745	1032.07572651488	102.53749540741
60	84417	1239.36848451657	663.52261620361
60	97004	1432.77121591134	78.313350167389
60	107895	1615.99048046674	500.00395552345
60	119677	1802.60194673809	1599.0893279394
60	130308	1976.05165240334	367.81390050783
60	142100	2153.61921754138	362.71669287797
60	154749	2353.67889863326	785.4122104667
60	167689	2562.31817943897	191.06502146794
60	179519	2746.75747446689	104.93466121876
60	191668	2924.65356367626	78.393182044943
60	203329	3102.61771992157	492.46832833556
60	216839	3312.89062737218	965.13020754837
60	229087	3492.26356275082	1041.122304027
61	19763	222.77363621231	446.43882962774
61	30348	405.395715702	1221.9378421958
61	44621	611.17567576193	16.951480337031
61	56981	811.75734139049	198.69222262066
61	68482	998.2914823573	470.51408900946
61	82493	1215.50617960356	2249.3640956386
61	93688	1389.11899800795	347.16945014535
61	105684	1580.03592483985	215.42396259838
61	117539	1773.31876229712	622.81315873132
61	132094	2003.85268621147	650.32884196752
61	151621	2288.98376360117	334.10765915325
61	165626	2518.67214881147	986.04613835227
61	176721	2691.66778924657	251.14475127305
61	188862	2868.64862445026	802.83291476941
61	202355	3084.05711054177	661.30622325208
61	214126	3270.01401632403	995.30820699465
61	225892	3445.58207423547	1040.9557761683
62	20103	226.34039452583	892.20640555589
62	32593	424.84986936101	149.081822205
62	44226	608.72397928992	77.406675023463
62	55895	793.82918140072	621.08575335897
62	66897	977.78807240075	1237.5949549697
62	77763	1155.25664161436	1436.9730176266
62	89978	1344.39534674442	805.92386900469
62	101186	1518.14346627203	825.5640232414
62	115170	1731.76059722364	795.22564908063
62	126286	1908.24367539202	1956.5546351574
62	138510	2093.8778827406	441.61317150463
62	150267	2270.38132749194	909.84934550572
62	163739	2484.78597179573	783.59470148531
62	176559	2684.55989178889	348.71610483589
62	190015	2889.57811046867	51.098248378597
62	203249	3101.50511195313	105.78979387889
62	214928	3274.05151894553	57.691543907099
62	226636	3456.10360941646	76.453301771882
63	20288	228.30142218815	3382.3755885882
63	32357	423.74961206896	340.63193656107
63	45772	636.06561261228	1212.1420388074
63	57138	813.82861993583	174.94155065351
63	67613	987.18482026017	176.44473902005
63	79608	1173.05344336539	22.115453892711
63	91900	1369.86439373581	1343.7986777706
63	103553	1552.76454349436	1917.638988243
63	115722	1739.99990997193	332.25716135876
63	127743	1922.74387477281	154.09944177511
63	140920	2131.76702350477	415.98925309624
63	152650	2307.52410203047	1164.5953942622
63	164073	2487.65384694212	1270.7207634167
63	175734	2668.45368824815	364.87661807267
63	187765	2857.08052345084	669.39982577046
63	200671	3054.25006132313	9.9234427793027
63	214441	3271.46823582582	689.20172046851
63	226061	3449.7397611069	504.18155306824
64	20470	230.08996137021	94.946855139237
64	32940	427.36607814875	3191.2457298219
64	44045	607.42710115755	588.43734320938
64	54159	778.80995239448	133.53020267858
64	65460	957.74360888071	82.440182033107
64	75596	1129.71939414554	1218.1970336013
64	87122	1306.49134421498	1414.7391780252
64	100212	1503.17089907998	1764.0572942448
64	111969	1686.80900787026	34.222713909765
64	125269	1885.86767055886	79.770161358025
64	139886	2110.50015030482	97.241085044148
64	151100	2282.66835950825	23.829086925993
64	167610	2562.28313315538	213.5725697834
64	182269	2779.08581385684	200.55744643417
64	194111	2966.50660610589	207.57176539479
64	210101	3218.23824722511	2205.7719638858
64	222519	3411.16312003255	226.77601184612
64	234134	3595.00438768496	436.8508976585
65	20650	232.43544673018	3366.0214501449
65	31038	413.35389801381	1062.7157924541
65	41545	588.36469947501	134.70302478079
65	52861	764.06887263202	2270.4452495661
65	65871	960.96205414153	1028.3789613916
65	80111	1184.31867210071	913.33790470074
65	92241	1373.45107951587	764.30353454075
65	103882	1554.74180513945	195.86338720808
65	115542	1736.63714579942	142.88813776458
65	130386	1976.50424243797	356.2264870981
65	142257	2159.24759559035	921.02758182885
65	157092	2388.22714576576	551.91486672326
65	171435	2603.93023897575	189.1865756513
65	181753	2775.56389252803	1109.1407583445
65	194816	2978.83680162808	420.5634123238
65	210017	3216.86577941533	431.33969170642
65	222598	3411.51658014872	1707.5111703822
66	20728	232.57270589676	423.65482309498
66	35444	467.72064404753	115.66145980013
66	46469	646.4398858294	375.39310993762
66	57721	824.31617695802	664.48179554348
66	71511	1039.60277900899	239.96879031301
66	90056	1344.71891455706	106.65228268212
66	102391	1537.92116175085	63.156161730061
66	116068	1747.7809127392	97.157937903997
66	127176	1920.42856541255	1409.8027796023
66	140310	2115.08775741287	242.99541673626
66	151990	2296.12432118046	120.87002442121
66	164767	2502.59056000815	1520.9760120273
66	177419	2701.76425882837	186.79855591915
66	190176	2895.48622445551	375.66192945107
66	201607	3071.59411465591	124.87157808326
66	213260	3252.96222847497	100.18484180455
66	227544	3468.03707699506	28.576753243372
67	20810	233.28059517856	53.911214317906
67	30605	406.99423082371	661.94418409529
67	42442	593.92105991094	93.103404233766
67	53969	775.1228314915	764.0693887378
67	64970	948.9799800212	922.67842917372
67	79104	1166.54583926799	690.12601378463
67	91740	1368.08906980232	1107.9956964791
67	105268	1574.60832517226	881.48780212226
67	118194	1780.65151545219	76.635280513256
67	131859	2002.35322322851	3376.5756706471
67	145247	2203.59361412502	88.954374032931
67	162705	2460.26723543657	416.27689431176
67	173327	2632.7653078439	70.850043213706
67	185645	2819.21289337806	213.22249904434
67	196611	2991.85063418822	141.78408435946
67	206664	3165.4646836785	274.03223333131
67	220116	3369.01481860891	82.217455940434
67	231450	3544.9718326181	2134.7273865063
68	21145	235.703052875	95.171751445118
68	30764	407.59533852577	355.05443507957
68	42698	594.83308161962	191.71556999051
68	55127	786.05758540207	244.66744322162
68	66640	975.58574391258	357.15895387409
68	81893	1207.57729307584	315.06410364095
68	94476	1400.04574415207	185.01607522493
68	108127	1617.7588877389	318.31256590189
68	120856	1824.6962069107	847.41829091946
68	133278	2016.67614339579	1014.1407499482
68	145403	2203.99838179071	1019.8500185895
68	158488	2404.88855406032	114.36627469142
68	175991	2670.81295579614	89.71013455883
68	188023	2860.51029927451	36.766148324557
68	199531	3038.68163879215	71.169061510878
68	213100	3250.32680765414	424.85786593585
68	224998	3438.20539238043	623.68554540036
69	21228	236.88569539973	392.0883055666
69	33610	433.81221247632	749.38875146852
69	45262	621.76919307875	1059.2675862427
69	61030	893.36320405958	295.01870452077
69	73005	1065.84154299874	188.04934487879
69	84178	1237.67527953505	324.8748073148
69	96054	1429.08858989663	393.974238755
69	112549	1694.11888045272	1411.590683543
69	123929	1865.86341996364	1832.4532508227
69	135389	2040.05043717014	292.0066359029
69	148272	2229.36665904394	25.268919314691
69	159932	2420.6900358722	1414.6190324742
69	171520	2605.16076265171	502.79771109988
69	182108	2778.13441681977	296.9627279724
69	196181	2987.08522023426	339.32427470855
69	209015	3202.90074115529	259.20384679983
69	221814	3401.21025172893	616.12248416104
69	234544	3598.85019448711	962.85764541013
70	21482	243.50368660271	1166.6348811462
70	33452	432.67371265861	84.766282069608
70	45104	619.73650351157	435.56909305037
70	59821	858.6091590839	109.89542216817
70	76839	1144.14388087202	1362.9323785746
70	87958	1316.65171149265	494.40133881454
70	99492	1488.77173718059	226.58485208829
70	111255	1677.15855000541	697.0399103266
70	123061	1853.29289704083	1433.6178275563
70	136278	2053.62977961807	219.21941607374
70	148687	2236.616870475	442.54782018257
70	160613	2430.73589638609	373.20389379945
70	173008	2626.55359579228	383.89189845657
70	183559	2803.10837845276	1911.6711114896
70	198804	3030.74431947307	603.22614312141
70	209377	3213.84516418569	361.41422246399
70	222260	3407.97949698005	1831.0410221299
70	233783	3587.62570886877	808.65865974273
71	21636	246.1371882827	96.728792266165
71	32023	422.31781459775	30.464032634052
71	43120	598.6139162997	142.37349040012
71	53631	772.28244451551	404.3144421664
71	65694	959.60720523495	760.36397907659
71	76183	1138.52834024389	815.03247625902
71	87542	1312.09675791004	701.02655735848
71	100611	1508.08656133825	1590.6756028403
71	113333	1702.60766196079	730.36190335153
71	126786	1918.2140360073	33.805970892326
71	138919	2101.4514695805	1760.7477078158
71	150758	2278.47260704569	551.89560807058
71	162242	2456.61281933744	50.108635047358
71	175243	2660.19348495154	1351.5899508787
71	186979	2843.19275350118	1909.4446451036
71	202855	3094.47747062079	30.456446362561
71	215182	3279.65033238615	27.752243552141
71	227054	3459.05040950225	204.08835122922
72	21716	247.65965329563	17.142996042295
72	31693	420.9707624889	431.40135005945
72	42279	592.85518674443	980.11789621881
72	57641	823.66489279882	701.37867592192
72	68152	995.32257090551	955.90749650997
72	79187	1167.84919726415	1681.6381016789
72	90797	1351.44532354329	1107.9368775753
72	103475	1551.96459682692	699.75515980797
72	115803	1741.53298677154	220.90103628585
72	134197	2025.44703052663	3384.3833198456
72	145482	2204.68057604368	549.80931422191
72	156755	2384.67344707244	787.78995031028
72	170046	2586.72597435718	75.034987971739
72	181517	2772.69475779145	172.55950130288
72	194029	2965.00116973583	121.87038231197
72	206825	3166.65432795799	1285.5202700428
72	219168	3354.42654213331	262.35098306623
72	232865	3574.1024997624	413.63518210868
73	21794	247.75163091949	562.57197549403
73	31613	419.86673155099	107.61934303086
73	43622	602.82903975071	1391.8135251495
73	56222	800.37028295985	780.76356839945
73	66718	976.14495195428	768.03078084444
73	80448	1189.65829104347	588.2263174103
73	94556	1400.59166109336	1068.6858395298
73	107106	1604.24343666937	554.4699331712
73	118272	1781.03547853286	137.32032992094
73	137020	2063.06197764801	518.16872489711
73	148609	2235.5804433245	217.76174360887
73	160201	2426.41625540814	146.82672001907
73	172184	2613.89589188734	128.53762920431
73	183140	2793.67925199834	757.61268589859
73	194738	2978.32974858458	1010.475488743
73	206742	3165.61926192766	1859.3161608027
73	219514	3360.40954066555	197.10098972294
74	22126	249.95421133611	843.3504481866
74	35106	459.82542911038	605.26391016742
74	47407	658.37030100505	1095.3509122716
74	59666	855.08220660795	312.52025498766
74	71431	1038.46479167281	203.81771767757
74	82652	1218.72509618611	439.18847467205
74	95976	1428.81912426411	424.86848797615
74	110679	1665.23655411448	2860.6089003874
74	121557	1836.61459398613	171.99445087037
74	133691	2020.08304009242	732.68158892917
74	144827	2200.02241939133	365.44006744112
74	156676	2382.9915639961	169.09639667319
74	169281	2581.07954548433	236.91743013781
74	180648	2760.87638611978	752.65720004559
74	195148	2979.97338053921	598.52993282653
74	210873	3225.73846963064	1361.5346620919
74	221733	3400.33375593002	180.61010632671
74	233863	3587.91603233408	648.31225052045
75	22204	250.18889329669	218.57947445852
75	33765	434.80017881301	460.92388773153
75	47155	656.3666378657	50.400867311558
75	58130	827.65588318827	1292.1822104992
75	70657	1030.71512980934	270.0925699396
75	85025	1247.49848184543	562.50084574596
75	96132	1429.92617266872	852.6199194371
75	108472	1625.5688053534	958.98265020988
75	119521	1802.32656700467	519.19615105072
75	130464	1976.58139377644	662.8855791801
75	147060	2218.84593274011	291.82231728983
75	157489	2392.28706554469	1105.293885839
75	169359	2581.14772344075	564.13046454253
75	182187	2778.35247296008	1576.8555528501
75	196530	2991.08714742041	166.75869232126
75	206407	3163.52014096196	520.65320179804
75	223575	3421.67838901724	329.55297960037
76	22478	255.74337971079	316.54530697161
76	35260	462.27358814078	253.09553595803
76	49973	737.01339765364	95.533750543399
76	62263	928.22622777435	111.57791422412
76	75674	1129.83370387685	776.51081900808
76	87044	1306.00462963333	254.26185003674
76	98467	1477.34747429898	783.63501529664
76	110336	1653.95059142707	598.33671450247
76	121038	1828.65068196888	127.11104556128
76	136198	2052.76362131734	186.14684224394
76	147752	2226.65582102174	38.151209924359
76	166016	2521.5794710456	1350.4257891186
76	179253	2741.70486534692	391.66138993958
76	191989	2929.5183175585	344.85490111641
76	208588	3191.37106783225	858.29330841622
76	220034	3367.33876386861	192.95494544037
76	232293	3558.05606031971	488.46736682057
77	23210	269.60623895986	226.07472113538
77	35524	469.25115064829	6.4784782097341
77	48969	691.96740202751	1087.2128993171
77	60871	889.06726863748	125.2266655849
77	72925	1064.80615201512	50.887733936324
77	84257	1237.95331633904	1011.6907920782
77	97772	1456.24915570102	1511.0708017713
77	108890	1631.07803736786	169.30844822985
77	124009	1867.41682703268	130.97147965115
77	135544	2043.6967776676	278.76559477429
77	146418	2214.94293067704	153.3886028886
77	157012	2386.77394262379	22.715020044439
77	170810	2601.02524148806	170.14071827054
77	182684	2781.29266579747	1851.7404093842
77	195628	2983.82974384896	158.38451730247
77	205488	3156.15875816416	97.878529635223
77	218275	3341.06341963377	197.58643016016
77	234623	3599.02679314899	398.28931123559
78	23474	272.33539631908	122.70682093065
78	36387	481.12448396091	1327.6159085711
78	48735	688.01832592736	168.56693130502
78	60055	860.53374408248	103.88115001621
78	72037	1051.25748392332	233.36587718259
78	83497	1229.14131304981	124.42717152242
78	96519	1431.61078723991	268.46288137879
78	107340	1606.59359499372	177.93795455451
78	118435	1782.52144763386	48.711835512056
78	130795	1979.27721888257	598.91843642018
78	142589	2161.65200347673	802.71605880203
78	156507	2379.05961419828	149.12257459406
78	166888	2557.38289230737	593.70705722632
78	183399	2797.85211198285	133.08458239696
78	199453	3038.66415851359	587.91104185237
78	211029	3226.12960129753	358.20785294869
78	223497	3421.49700280177	1249.1176739725
79	23981	299.88694241502	587.19705008391
79	36305	479.97096915144	639.05731775797
79	48313	678.35141106632	2580.5262469474
79	60509	883.20779643784	1139.0410370419
79	72588	1061.81920044452	86.615772070992
79	87876	1315.10835638061	86.45879312847
79	99976	1499.54058979484	1091.3838684505
79	111572	1681.8810332967	2088.7893624781
79	123750	1861.79342951196	1554.6596796248
79	136540	2056.6879868178	572.73918125424
79	149278	2250.63877229967	152.76600553526
79	160535	2430.69158213901	2100.3872371406
79	173249	2632.51662625791	646.46844574339
79	183717	2804.04737801465	1318.4476264858
79	194992	2979.73266171436	576.99568695959
79	207694	3178.83215354243	139.07554192542
79	218986	3352.1813305506	269.43592622241
79	231372	3544.94833762374	277.42782147518

