version 3
run N75-26-20260518-02:27:22-159888
attr configname N75
attr datetime 20260518-02:27:22
attr datetimef 20260518-022722
attr experiment N75
attr inifile omnetpp.ini
attr iterationvars "$0=\"avg\""
attr iterationvarsd avg
attr iterationvarsf avg-
attr measurement "$0=\"avg\""
attr network test2.LoRaNetworkTest
attr processid 159888
attr repetition 26
attr replication #26
attr resultdir results
attr runnumber 26
attr seedset 26
config extends General
config **.numPatients 75
config network test2.LoRaNetworkTest
config sim-time-limit 1h
config warmup-period 60s
config simtime-resolution -11
config repeat 30
config rng-class cMersenneTwister
config record-eventlog false
config **.numPatients 20
config **.HospitalServer.app[0].queueLength:vector.vector-recording true
config **.HospitalServer.app[0].urgentWaitTime:vector.vector-recording true
config **.HospitalServer.app[0].normalWaitTime:vector.vector-recording true
config **.HospitalServer.app[0].urgentEndToEndDelay:vector.vector-recording true
config **.HospitalServer.app[0].normalEndToEndDelay:vector.vector-recording true
config **.loRaNodes[*].app[0].emergencyVariate:vector.vector-recording true
config **.vector-recording false
config **.loRaNodes[0].**.initialX "300m + uniform(-10m, 10m)"
config **.loRaNodes[0].**.initialY "250m + uniform(-8m, 8m)"
config **.loRaNodes[1].**.initialX "450m + uniform(-10m, 10m)"
config **.loRaNodes[1].**.initialY "250m + uniform(-8m, 8m)"
config **.loRaNodes[2].**.initialX "600m + uniform(-10m, 10m)"
config **.loRaNodes[2].**.initialY "250m + uniform(-8m, 8m)"
config **.loRaNodes[3].**.initialX "750m + uniform(-10m, 10m)"
config **.loRaNodes[3].**.initialY "250m + uniform(-8m, 8m)"
config **.loRaNodes[4].**.initialX "900m + uniform(-10m, 10m)"
config **.loRaNodes[4].**.initialY "250m + uniform(-8m, 8m)"
config **.loRaNodes[5].**.initialX "1050m + uniform(-10m, 10m)"
config **.loRaNodes[5].**.initialY "250m + uniform(-8m, 8m)"
config **.loRaNodes[6].**.initialX "1200m + uniform(-10m, 10m)"
config **.loRaNodes[6].**.initialY "250m + uniform(-8m, 8m)"
config **.loRaNodes[7].**.initialX "1350m + uniform(-10m, 10m)"
config **.loRaNodes[7].**.initialY "250m + uniform(-8m, 8m)"
config **.loRaNodes[8].**.initialX "1500m + uniform(-10m, 10m)"
config **.loRaNodes[8].**.initialY "250m + uniform(-8m, 8m)"
config **.loRaNodes[9].**.initialX "1650m + uniform(-10m, 10m)"
config **.loRaNodes[9].**.initialY "250m + uniform(-8m, 8m)"
config **.loRaNodes[10].**.initialX "300m + uniform(-10m, 10m)"
config **.loRaNodes[10].**.initialY "370m + uniform(-8m, 8m)"
config **.loRaNodes[11].**.initialX "450m + uniform(-10m, 10m)"
config **.loRaNodes[11].**.initialY "370m + uniform(-8m, 8m)"
config **.loRaNodes[12].**.initialX "600m + uniform(-10m, 10m)"
config **.loRaNodes[12].**.initialY "370m + uniform(-8m, 8m)"
config **.loRaNodes[13].**.initialX "750m + uniform(-10m, 10m)"
config **.loRaNodes[13].**.initialY "370m + uniform(-8m, 8m)"
config **.loRaNodes[14].**.initialX "900m + uniform(-10m, 10m)"
config **.loRaNodes[14].**.initialY "370m + uniform(-8m, 8m)"
config **.loRaNodes[15].**.initialX "1050m + uniform(-10m, 10m)"
config **.loRaNodes[15].**.initialY "370m + uniform(-8m, 8m)"
config **.loRaNodes[16].**.initialX "1200m + uniform(-10m, 10m)"
config **.loRaNodes[16].**.initialY "370m + uniform(-8m, 8m)"
config **.loRaNodes[17].**.initialX "1350m + uniform(-10m, 10m)"
config **.loRaNodes[17].**.initialY "370m + uniform(-8m, 8m)"
config **.loRaNodes[18].**.initialX "1500m + uniform(-10m, 10m)"
config **.loRaNodes[18].**.initialY "370m + uniform(-8m, 8m)"
config **.loRaNodes[19].**.initialX "1650m + uniform(-10m, 10m)"
config **.loRaNodes[19].**.initialY "370m + uniform(-8m, 8m)"
config **.loRaNodes[20].**.initialX "300m + uniform(-10m, 10m)"
config **.loRaNodes[20].**.initialY "490m + uniform(-8m, 8m)"
config **.loRaNodes[21].**.initialX "450m + uniform(-10m, 10m)"
config **.loRaNodes[21].**.initialY "490m + uniform(-8m, 8m)"
config **.loRaNodes[22].**.initialX "600m + uniform(-10m, 10m)"
config **.loRaNodes[22].**.initialY "490m + uniform(-8m, 8m)"
config **.loRaNodes[23].**.initialX "750m + uniform(-10m, 10m)"
config **.loRaNodes[23].**.initialY "490m + uniform(-8m, 8m)"
config **.loRaNodes[24].**.initialX "900m + uniform(-10m, 10m)"
config **.loRaNodes[24].**.initialY "490m + uniform(-8m, 8m)"
config **.loRaNodes[25].**.initialX "1050m + uniform(-10m, 10m)"
config **.loRaNodes[25].**.initialY "490m + uniform(-8m, 8m)"
config **.loRaNodes[26].**.initialX "1200m + uniform(-10m, 10m)"
config **.loRaNodes[26].**.initialY "490m + uniform(-8m, 8m)"
config **.loRaNodes[27].**.initialX "1350m + uniform(-10m, 10m)"
config **.loRaNodes[27].**.initialY "490m + uniform(-8m, 8m)"
config **.loRaNodes[28].**.initialX "1500m + uniform(-10m, 10m)"
config **.loRaNodes[28].**.initialY "490m + uniform(-8m, 8m)"
config **.loRaNodes[29].**.initialX "1650m + uniform(-10m, 10m)"
config **.loRaNodes[29].**.initialY "490m + uniform(-8m, 8m)"
config **.loRaNodes[30].**.initialX "300m + uniform(-10m, 10m)"
config **.loRaNodes[30].**.initialY "610m + uniform(-8m, 8m)"
config **.loRaNodes[31].**.initialX "450m + uniform(-10m, 10m)"
config **.loRaNodes[31].**.initialY "610m + uniform(-8m, 8m)"
config **.loRaNodes[32].**.initialX "600m + uniform(-10m, 10m)"
config **.loRaNodes[32].**.initialY "610m + uniform(-8m, 8m)"
config **.loRaNodes[33].**.initialX "750m + uniform(-10m, 10m)"
config **.loRaNodes[33].**.initialY "610m + uniform(-8m, 8m)"
config **.loRaNodes[34].**.initialX "900m + uniform(-10m, 10m)"
config **.loRaNodes[34].**.initialY "610m + uniform(-8m, 8m)"
config **.loRaNodes[35].**.initialX "1050m + uniform(-10m, 10m)"
config **.loRaNodes[35].**.initialY "610m + uniform(-8m, 8m)"
config **.loRaNodes[36].**.initialX "1200m + uniform(-10m, 10m)"
config **.loRaNodes[36].**.initialY "610m + uniform(-8m, 8m)"
config **.loRaNodes[37].**.initialX "1350m + uniform(-10m, 10m)"
config **.loRaNodes[37].**.initialY "610m + uniform(-8m, 8m)"
config **.loRaNodes[38].**.initialX "1500m + uniform(-10m, 10m)"
config **.loRaNodes[38].**.initialY "610m + uniform(-8m, 8m)"
config **.loRaNodes[39].**.initialX "1650m + uniform(-10m, 10m)"
config **.loRaNodes[39].**.initialY "610m + uniform(-8m, 8m)"
config **.loRaNodes[40].**.initialX "300m + uniform(-10m, 10m)"
config **.loRaNodes[40].**.initialY "730m + uniform(-8m, 8m)"
config **.loRaNodes[41].**.initialX "450m + uniform(-10m, 10m)"
config **.loRaNodes[41].**.initialY "730m + uniform(-8m, 8m)"
config **.loRaNodes[42].**.initialX "600m + uniform(-10m, 10m)"
config **.loRaNodes[42].**.initialY "730m + uniform(-8m, 8m)"
config **.loRaNodes[43].**.initialX "750m + uniform(-10m, 10m)"
config **.loRaNodes[43].**.initialY "730m + uniform(-8m, 8m)"
config **.loRaNodes[44].**.initialX "900m + uniform(-10m, 10m)"
config **.loRaNodes[44].**.initialY "730m + uniform(-8m, 8m)"
config **.loRaNodes[45].**.initialX "1050m + uniform(-10m, 10m)"
config **.loRaNodes[45].**.initialY "730m + uniform(-8m, 8m)"
config **.loRaNodes[46].**.initialX "1200m + uniform(-10m, 10m)"
config **.loRaNodes[46].**.initialY "730m + uniform(-8m, 8m)"
config **.loRaNodes[47].**.initialX "1350m + uniform(-10m, 10m)"
config **.loRaNodes[47].**.initialY "730m + uniform(-8m, 8m)"
config **.loRaNodes[48].**.initialX "1500m + uniform(-10m, 10m)"
config **.loRaNodes[48].**.initialY "730m + uniform(-8m, 8m)"
config **.loRaNodes[49].**.initialX "1650m + uniform(-10m, 10m)"
config **.loRaNodes[49].**.initialY "730m + uniform(-8m, 8m)"
config **.loRaNodes[50].**.initialX "300m + uniform(-10m, 10m)"
config **.loRaNodes[50].**.initialY "850m + uniform(-8m, 8m)"
config **.loRaNodes[51].**.initialX "450m + uniform(-10m, 10m)"
config **.loRaNodes[51].**.initialY "850m + uniform(-8m, 8m)"
config **.loRaNodes[52].**.initialX "600m + uniform(-10m, 10m)"
config **.loRaNodes[52].**.initialY "850m + uniform(-8m, 8m)"
config **.loRaNodes[53].**.initialX "750m + uniform(-10m, 10m)"
config **.loRaNodes[53].**.initialY "850m + uniform(-8m, 8m)"
config **.loRaNodes[54].**.initialX "900m + uniform(-10m, 10m)"
config **.loRaNodes[54].**.initialY "850m + uniform(-8m, 8m)"
config **.loRaNodes[55].**.initialX "1050m + uniform(-10m, 10m)"
config **.loRaNodes[55].**.initialY "850m + uniform(-8m, 8m)"
config **.loRaNodes[56].**.initialX "1200m + uniform(-10m, 10m)"
config **.loRaNodes[56].**.initialY "850m + uniform(-8m, 8m)"
config **.loRaNodes[57].**.initialX "1350m + uniform(-10m, 10m)"
config **.loRaNodes[57].**.initialY "850m + uniform(-8m, 8m)"
config **.loRaNodes[58].**.initialX "1500m + uniform(-10m, 10m)"
config **.loRaNodes[58].**.initialY "850m + uniform(-8m, 8m)"
config **.loRaNodes[59].**.initialX "1650m + uniform(-10m, 10m)"
config **.loRaNodes[59].**.initialY "850m + uniform(-8m, 8m)"
config **.loRaNodes[60].**.initialX "300m + uniform(-10m, 10m)"
config **.loRaNodes[60].**.initialY "970m + uniform(-8m, 8m)"
config **.loRaNodes[61].**.initialX "450m + uniform(-10m, 10m)"
config **.loRaNodes[61].**.initialY "970m + uniform(-8m, 8m)"
config **.loRaNodes[62].**.initialX "600m + uniform(-10m, 10m)"
config **.loRaNodes[62].**.initialY "970m + uniform(-8m, 8m)"
config **.loRaNodes[63].**.initialX "750m + uniform(-10m, 10m)"
config **.loRaNodes[63].**.initialY "970m + uniform(-8m, 8m)"
config **.loRaNodes[64].**.initialX "900m + uniform(-10m, 10m)"
config **.loRaNodes[64].**.initialY "970m + uniform(-8m, 8m)"
config **.loRaNodes[65].**.initialX "1050m + uniform(-10m, 10m)"
config **.loRaNodes[65].**.initialY "970m + uniform(-8m, 8m)"
config **.loRaNodes[66].**.initialX "1200m + uniform(-10m, 10m)"
config **.loRaNodes[66].**.initialY "970m + uniform(-8m, 8m)"
config **.loRaNodes[67].**.initialX "1350m + uniform(-10m, 10m)"
config **.loRaNodes[67].**.initialY "970m + uniform(-8m, 8m)"
config **.loRaNodes[68].**.initialX "1500m + uniform(-10m, 10m)"
config **.loRaNodes[68].**.initialY "970m + uniform(-8m, 8m)"
config **.loRaNodes[69].**.initialX "1650m + uniform(-10m, 10m)"
config **.loRaNodes[69].**.initialY "970m + uniform(-8m, 8m)"
config **.loRaNodes[70].**.initialX "300m + uniform(-10m, 10m)"
config **.loRaNodes[70].**.initialY "1090m + uniform(-8m, 8m)"
config **.loRaNodes[71].**.initialX "450m + uniform(-10m, 10m)"
config **.loRaNodes[71].**.initialY "1090m + uniform(-8m, 8m)"
config **.loRaNodes[72].**.initialX "600m + uniform(-10m, 10m)"
config **.loRaNodes[72].**.initialY "1090m + uniform(-8m, 8m)"
config **.loRaNodes[73].**.initialX "750m + uniform(-10m, 10m)"
config **.loRaNodes[73].**.initialY "1090m + uniform(-8m, 8m)"
config **.loRaNodes[74].**.initialX "900m + uniform(-10m, 10m)"
config **.loRaNodes[74].**.initialY "1090m + uniform(-8m, 8m)"
config **.HospitalServer.numApps 1
config **.HospitalServer.app[0].typename HospitalServerApp
config **.HospitalServer.app[0].destPort 2000
config **.HospitalServer.app[0].localPort 1000
config **.HospitalServer.app[0].adrMethod "\"avg\""
config **.HospitalServer.**.evaluateADRinServer true
config **.HospitalServer.app[0].queueSize 50
config **.HospitalServer.app[0].expo_rate_lambda 0.83
config **.loRaGateway.numUdpApps 1
config **.loRaGateway.packetForwarder.localPort 2000
config **.loRaGateway.packetForwarder.destPort 1000
config **.loRaGateway.packetForwarder.destAddresses "\"HospitalServer\""
config **.loRaGateway.**.initFromDisplayString false
config **.loRaGateway.**.initialX 544.00m
config **.loRaGateway.**.initialY 544.00m
config **.loRaNodes[*].numApps 1
config **.loRaNodes[*].app[0].typename PatientSensorApp
config **.loRaNodes[*].app[0].expo_rate_lambda 0.00175
config **.loRaNodes[*].app[0].emergencyThreshold 50
config **.loRaNodes[*].**.timeToFirstPacket exponential(24s)
config **.loRaNodes[*].**.timeToNextPacket exponential(24s)
config **.loRaNodes[*].**.numberOfPacketsToSend 0
config **.loRaNodes[*].**initialLoRaSF 12
config **.loRaNodes[*].**initialLoRaTP 14dBm
config **.loRaNodes[*].**initialLoRaBW "125 kHz"
config **.loRaNodes[*].**initialLoRaCR 4
config **.loRaNodes[*].**.initFromDisplayString false
config **.loRaNodes[*].**.evaluateADRinNode true
config **.loRaNodes[*].LoRaNic.radio.energyConsumer.typename LoRaEnergyConsumer
config **.loRaNodes[*].**.energySourceModule "\"^.IdealEpEnergyStorage\""
config **.loRaNodes[*].LoRaNic.radio.energyConsumer.configFile "xmldoc(\"energyConsumptionParam.xml\")"
config **.maxTransmissionDuration 4s
config **.energyDetection -110dBm
config **.radio.radioMediumModule "\"LoRaMedium\""
config **.minInterferenceTime 0s
config **.constraintAreaMinX 0m
config **.constraintAreaMinY 0m
config **.constraintAreaMinZ 0m
config **.constraintAreaMaxZ 0m
config **.constraintAreaMaxX 3000.0m
config **.constraintAreaMaxY 3000.0m

vector 0 LoRaNetworkTest.loRaNodes[68].app[0] emergencyVariate:vector ETV
attr recordingmode vector
attr title "Exponential variate samples"
vector 1 LoRaNetworkTest.loRaNodes[44].app[0] emergencyVariate:vector ETV
attr recordingmode vector
attr title "Exponential variate samples"
vector 2 LoRaNetworkTest.loRaNodes[25].app[0] emergencyVariate:vector ETV
attr recordingmode vector
attr title "Exponential variate samples"
vector 3 LoRaNetworkTest.loRaNodes[72].app[0] emergencyVariate:vector ETV
attr recordingmode vector
attr title "Exponential variate samples"
vector 4 LoRaNetworkTest.HospitalServer.app[0] queueLength:vector ETV
attr recordingmode vector
attr title "Total queue length"
vector 5 LoRaNetworkTest.HospitalServer.app[0] urgentWaitTime:vector ETV
attr recordingmode vector
attr title "Urgent wait time (s)"
vector 6 LoRaNetworkTest.HospitalServer.app[0] urgentEndToEndDelay:vector ETV
attr recordingmode vector
attr title "Urgent end-to-end delay (s)"
vector 7 LoRaNetworkTest.loRaNodes[63].app[0] emergencyVariate:vector ETV
attr recordingmode vector
attr title "Exponential variate samples"
vector 8 LoRaNetworkTest.loRaNodes[52].app[0] emergencyVariate:vector ETV
attr recordingmode vector
attr title "Exponential variate samples"
vector 9 LoRaNetworkTest.HospitalServer.app[0] normalWaitTime:vector ETV
attr recordingmode vector
attr title "Normal wait time (s)"
vector 10 LoRaNetworkTest.HospitalServer.app[0] normalEndToEndDelay:vector ETV
attr recordingmode vector
attr title "Normal end-to-end delay (s)"
vector 11 LoRaNetworkTest.loRaNodes[22].app[0] emergencyVariate:vector ETV
attr recordingmode vector
attr title "Exponential variate samples"
vector 12 LoRaNetworkTest.loRaNodes[5].app[0] emergencyVariate:vector ETV
attr recordingmode vector
attr title "Exponential variate samples"
vector 13 LoRaNetworkTest.loRaNodes[11].app[0] emergencyVariate:vector ETV
attr recordingmode vector
attr title "Exponential variate samples"
vector 14 LoRaNetworkTest.loRaNodes[61].app[0] emergencyVariate:vector ETV
attr recordingmode vector
attr title "Exponential variate samples"
vector 15 LoRaNetworkTest.loRaNodes[45].app[0] emergencyVariate:vector ETV
attr recordingmode vector
attr title "Exponential variate samples"
vector 16 LoRaNetworkTest.loRaNodes[39].app[0] emergencyVariate:vector ETV
attr recordingmode vector
attr title "Exponential variate samples"
vector 17 LoRaNetworkTest.loRaNodes[42].app[0] emergencyVariate:vector ETV
attr recordingmode vector
attr title "Exponential variate samples"
vector 18 LoRaNetworkTest.loRaNodes[37].app[0] emergencyVariate:vector ETV
attr recordingmode vector
attr title "Exponential variate samples"
vector 19 LoRaNetworkTest.loRaNodes[51].app[0] emergencyVariate:vector ETV
attr recordingmode vector
attr title "Exponential variate samples"
vector 20 LoRaNetworkTest.loRaNodes[33].app[0] emergencyVariate:vector ETV
attr recordingmode vector
attr title "Exponential variate samples"
vector 21 LoRaNetworkTest.loRaNodes[35].app[0] emergencyVariate:vector ETV
attr recordingmode vector
attr title "Exponential variate samples"
vector 22 LoRaNetworkTest.loRaNodes[59].app[0] emergencyVariate:vector ETV
attr recordingmode vector
attr title "Exponential variate samples"
vector 23 LoRaNetworkTest.loRaNodes[27].app[0] emergencyVariate:vector ETV
attr recordingmode vector
attr title "Exponential variate samples"
vector 24 LoRaNetworkTest.loRaNodes[34].app[0] emergencyVariate:vector ETV
attr recordingmode vector
attr title "Exponential variate samples"
vector 25 LoRaNetworkTest.loRaNodes[14].app[0] emergencyVariate:vector ETV
attr recordingmode vector
attr title "Exponential variate samples"
vector 26 LoRaNetworkTest.loRaNodes[46].app[0] emergencyVariate:vector ETV
attr recordingmode vector
attr title "Exponential variate samples"
vector 27 LoRaNetworkTest.loRaNodes[1].app[0] emergencyVariate:vector ETV
attr recordingmode vector
attr title "Exponential variate samples"
vector 28 LoRaNetworkTest.loRaNodes[38].app[0] emergencyVariate:vector ETV
attr recordingmode vector
attr title "Exponential variate samples"
vector 29 LoRaNetworkTest.loRaNodes[18].app[0] emergencyVariate:vector ETV
attr recordingmode vector
attr title "Exponential variate samples"
vector 30 LoRaNetworkTest.loRaNodes[9].app[0] emergencyVariate:vector ETV
attr recordingmode vector
attr title "Exponential variate samples"
vector 31 LoRaNetworkTest.loRaNodes[16].app[0] emergencyVariate:vector ETV
attr recordingmode vector
attr title "Exponential variate samples"
vector 32 LoRaNetworkTest.loRaNodes[41].app[0] emergencyVariate:vector ETV
attr recordingmode vector
attr title "Exponential variate samples"
vector 33 LoRaNetworkTest.loRaNodes[13].app[0] emergencyVariate:vector ETV
attr recordingmode vector
attr title "Exponential variate samples"
vector 34 LoRaNetworkTest.loRaNodes[24].app[0] emergencyVariate:vector ETV
attr recordingmode vector
attr title "Exponential variate samples"
vector 35 LoRaNetworkTest.loRaNodes[21].app[0] emergencyVariate:vector ETV
attr recordingmode vector
attr title "Exponential variate samples"
vector 36 LoRaNetworkTest.loRaNodes[29].app[0] emergencyVariate:vector ETV
attr recordingmode vector
attr title "Exponential variate samples"
vector 37 LoRaNetworkTest.loRaNodes[54].app[0] emergencyVariate:vector ETV
attr recordingmode vector
attr title "Exponential variate samples"
vector 38 LoRaNetworkTest.loRaNodes[28].app[0] emergencyVariate:vector ETV
attr recordingmode vector
attr title "Exponential variate samples"
vector 39 LoRaNetworkTest.loRaNodes[64].app[0] emergencyVariate:vector ETV
attr recordingmode vector
attr title "Exponential variate samples"
vector 40 LoRaNetworkTest.loRaNodes[36].app[0] emergencyVariate:vector ETV
attr recordingmode vector
attr title "Exponential variate samples"
vector 41 LoRaNetworkTest.loRaNodes[31].app[0] emergencyVariate:vector ETV
attr recordingmode vector
attr title "Exponential variate samples"
vector 42 LoRaNetworkTest.loRaNodes[7].app[0] emergencyVariate:vector ETV
attr recordingmode vector
attr title "Exponential variate samples"
vector 43 LoRaNetworkTest.loRaNodes[20].app[0] emergencyVariate:vector ETV
attr recordingmode vector
attr title "Exponential variate samples"
vector 44 LoRaNetworkTest.loRaNodes[55].app[0] emergencyVariate:vector ETV
attr recordingmode vector
attr title "Exponential variate samples"
vector 45 LoRaNetworkTest.loRaNodes[62].app[0] emergencyVariate:vector ETV
attr recordingmode vector
attr title "Exponential variate samples"
vector 46 LoRaNetworkTest.loRaNodes[67].app[0] emergencyVariate:vector ETV
attr recordingmode vector
attr title "Exponential variate samples"
vector 47 LoRaNetworkTest.loRaNodes[30].app[0] emergencyVariate:vector ETV
attr recordingmode vector
attr title "Exponential variate samples"
vector 48 LoRaNetworkTest.loRaNodes[71].app[0] emergencyVariate:vector ETV
attr recordingmode vector
attr title "Exponential variate samples"
vector 49 LoRaNetworkTest.loRaNodes[17].app[0] emergencyVariate:vector ETV
attr recordingmode vector
attr title "Exponential variate samples"
vector 50 LoRaNetworkTest.loRaNodes[56].app[0] emergencyVariate:vector ETV
attr recordingmode vector
attr title "Exponential variate samples"
vector 51 LoRaNetworkTest.loRaNodes[40].app[0] emergencyVariate:vector ETV
attr recordingmode vector
attr title "Exponential variate samples"
vector 52 LoRaNetworkTest.loRaNodes[23].app[0] emergencyVariate:vector ETV
attr recordingmode vector
attr title "Exponential variate samples"
vector 53 LoRaNetworkTest.loRaNodes[53].app[0] emergencyVariate:vector ETV
attr recordingmode vector
attr title "Exponential variate samples"
vector 54 LoRaNetworkTest.loRaNodes[19].app[0] emergencyVariate:vector ETV
attr recordingmode vector
attr title "Exponential variate samples"
vector 55 LoRaNetworkTest.loRaNodes[26].app[0] emergencyVariate:vector ETV
attr recordingmode vector
attr title "Exponential variate samples"
vector 56 LoRaNetworkTest.loRaNodes[50].app[0] emergencyVariate:vector ETV
attr recordingmode vector
attr title "Exponential variate samples"
vector 57 LoRaNetworkTest.loRaNodes[8].app[0] emergencyVariate:vector ETV
attr recordingmode vector
attr title "Exponential variate samples"
vector 58 LoRaNetworkTest.loRaNodes[3].app[0] emergencyVariate:vector ETV
attr recordingmode vector
attr title "Exponential variate samples"
vector 59 LoRaNetworkTest.loRaNodes[0].app[0] emergencyVariate:vector ETV
attr recordingmode vector
attr title "Exponential variate samples"
vector 60 LoRaNetworkTest.loRaNodes[65].app[0] emergencyVariate:vector ETV
attr recordingmode vector
attr title "Exponential variate samples"
vector 61 LoRaNetworkTest.loRaNodes[48].app[0] emergencyVariate:vector ETV
attr recordingmode vector
attr title "Exponential variate samples"
vector 62 LoRaNetworkTest.loRaNodes[47].app[0] emergencyVariate:vector ETV
attr recordingmode vector
attr title "Exponential variate samples"
vector 63 LoRaNetworkTest.loRaNodes[49].app[0] emergencyVariate:vector ETV
attr recordingmode vector
attr title "Exponential variate samples"
vector 64 LoRaNetworkTest.loRaNodes[15].app[0] emergencyVariate:vector ETV
attr recordingmode vector
attr title "Exponential variate samples"
vector 65 LoRaNetworkTest.loRaNodes[2].app[0] emergencyVariate:vector ETV
attr recordingmode vector
attr title "Exponential variate samples"
vector 66 LoRaNetworkTest.loRaNodes[60].app[0] emergencyVariate:vector ETV
attr recordingmode vector
attr title "Exponential variate samples"
vector 67 LoRaNetworkTest.loRaNodes[32].app[0] emergencyVariate:vector ETV
attr recordingmode vector
attr title "Exponential variate samples"
vector 68 LoRaNetworkTest.loRaNodes[74].app[0] emergencyVariate:vector ETV
attr recordingmode vector
attr title "Exponential variate samples"
vector 69 LoRaNetworkTest.loRaNodes[6].app[0] emergencyVariate:vector ETV
attr recordingmode vector
attr title "Exponential variate samples"
vector 70 LoRaNetworkTest.loRaNodes[66].app[0] emergencyVariate:vector ETV
attr recordingmode vector
attr title "Exponential variate samples"
vector 71 LoRaNetworkTest.loRaNodes[4].app[0] emergencyVariate:vector ETV
attr recordingmode vector
attr title "Exponential variate samples"
vector 72 LoRaNetworkTest.loRaNodes[58].app[0] emergencyVariate:vector ETV
attr recordingmode vector
attr title "Exponential variate samples"
vector 73 LoRaNetworkTest.loRaNodes[73].app[0] emergencyVariate:vector ETV
attr recordingmode vector
attr title "Exponential variate samples"
vector 74 LoRaNetworkTest.loRaNodes[57].app[0] emergencyVariate:vector ETV
attr recordingmode vector
attr title "Exponential variate samples"
vector 75 LoRaNetworkTest.loRaNodes[12].app[0] emergencyVariate:vector ETV
attr recordingmode vector
attr title "Exponential variate samples"
vector 76 LoRaNetworkTest.loRaNodes[10].app[0] emergencyVariate:vector ETV
attr recordingmode vector
attr title "Exponential variate samples"
vector 77 LoRaNetworkTest.loRaNodes[70].app[0] emergencyVariate:vector ETV
attr recordingmode vector
attr title "Exponential variate samples"
vector 78 LoRaNetworkTest.loRaNodes[43].app[0] emergencyVariate:vector ETV
attr recordingmode vector
attr title "Exponential variate samples"
vector 79 LoRaNetworkTest.loRaNodes[69].app[0] emergencyVariate:vector ETV
attr recordingmode vector
attr title "Exponential variate samples"
0	10998	65.65750652173	6.5656386550812
0	21117	255.35830068533	206.33469187765
0	31707	429.26014491765	605.84661788889
0	45679	637.28698823802	1838.0034201108
0	59696	855.91788618312	562.02793110275
0	73145	1067.21006119648	908.53821278449
0	86348	1308.15718987661	879.9376012235
0	98461	1491.42830485649	88.133199730495
0	110326	1679.91655378866	1134.5610047465
0	121825	1851.48565005102	352.66170928184
0	133517	2030.80828308684	71.762536602216
0	145323	2203.70474901805	287.79091283591
0	157311	2390.49470631513	432.58683857572
0	172146	2615.71307515146	388.44807816637
0	185248	2810.84948573776	479.18872499453
0	196116	2987.66018543905	156.78860338598
0	208729	3171.99598868755	16.713783430549
0	219252	3344.13579752981	332.40457437255
0	231085	3524.00619317615	423.60054983252
1	11076	66.97986893215	1152.0437071129
1	21590	259.73033689618	268.76624568595
1	32662	435.37123783226	808.94938599975
1	43545	613.33241488724	260.53419492672
1	54195	785.77505172348	327.61250343325
1	64969	963.32223037797	537.60920538089
1	75536	1136.02517602691	159.84552503922
1	87445	1316.15060418079	421.35669901112
1	99773	1506.29078882886	671.49985806025
1	111301	1694.0357688597	746.38954356891
1	126572	1924.39675182181	2417.8976849686
1	137965	2101.70978272042	145.09163445171
1	148924	2274.78550557972	155.91681678121
1	162000	2477.81247726525	1274.0788793348
1	174091	2656.57710513348	515.7550118359
1	186506	2839.43555237075	1841.6933883129
1	198324	3017.75580637829	157.78128765322
1	211238	3213.09874475729	1994.6565229625
1	224008	3412.60868597661	260.42828970956
1	235604	3591.77231696243	121.29227168805
2	11230	68.2701749091	775.21819376157
2	23553	278.55043088561	78.771028742423
2	36960	490.96699474668	300.89274467437
2	48381	676.47962206286	81.449028718714
2	61036	883.64425727207	269.80018277004
2	73491	1075.46922837349	1104.4673203317
2	83814	1253.31442140109	1459.4515994253
2	95950	1434.50638024913	2637.5185432093
2	106898	1616.87842110025	911.829497667
2	118252	1789.99739137213	323.59123562545
2	132665	2001.72999602191	1702.5407726874
2	143996	2173.55418706801	1349.806984398
2	154872	2351.64668763189	988.67796345974
2	166324	2529.51804103684	529.94576607484
2	177881	2702.54463967982	182.51236113581
2	189890	2889.06009788114	571.48782931973
2	201737	3077.89688673359	152.14196538139
2	214643	3272.3281968608	418.37667055674
2	227264	3473.00668545968	1208.1534660116
3	11309	68.57688021749	3.8673357520222
3	20641	249.32678085307	168.44371884223
3	36622	485.52890866984	1161.9693906148
3	48144	668.1959508354	244.44831323494
3	60618	877.53348262195	582.60240844819
3	72778	1062.98153089279	199.9448592954
3	84075	1256.03837050297	358.92516409203
3	96341	1437.46635965749	137.83887807299
3	107906	1632.16216519292	141.73835704916
3	119354	1805.19608638205	709.10788526958
3	132858	2009.99751945685	132.15468969437
3	145637	2206.61993413365	182.18417850159
3	157754	2401.15750754435	216.06332506822
3	171875	2608.72253276788	622.45937230865
3	184048	2790.98047341918	289.02951469145
3	196611	2993.47663096474	763.06095368947
3	208545	3169.59708409555	299.85444347723
3	219094	3342.4820326068	142.51448819124
3	231737	3533.29516321216	89.691456022558
4	11621	70.28901146914	1
4	11621	70.28901146914	0
4	11964	91.07295011295	1
4	11964	91.07295011295	0
4	12128	108.01828282295	1
4	12128	108.01828282295	0
4	12344	110.23622171839	1
4	12344	110.23622171839	0
4	12637	180.67659025332	1
4	12637	180.67659025332	0
4	13186	186.15662486732	1
4	13186	186.15662486732	0
4	13683	191.50110155402	1
4	13683	191.50110155402	0
4	14433	194.70451762013	1
4	14525	195.87082854731	0
4	14985	198.66371867571	1
4	14985	198.66371867571	0
4	15647	202.35425161978	1
4	15647	202.35425161978	0
4	15848	204.64743564016	1
4	15848	204.64743564016	0
4	16245	206.58984514554	1
4	16292	207.4569569064	0
4	17886	215.64654668065	1
4	17886	215.64654668065	0
4	18291	217.89247248123	1
4	18407	218.34926892459	0
4	18679	222.55088904037	1
4	18679	222.55088904037	0
4	19070	225.55676957608	1
4	19070	225.55676957608	0
4	19635	230.01491321353	1
4	19635	230.01491321353	0
4	22279	262.03945707876	1
4	22279	262.03945707876	0
4	23483	271.18380550584	1
4	23483	271.18380550584	0
4	23917	282.91920944377	1
4	23917	282.91920944377	0
4	24369	293.53326314868	1
4	24369	293.53326314868	0
4	24750	307.72783267629	1
4	24750	307.72783267629	0
4	24891	355.97858850488	1
4	24891	355.97858850488	0
4	25316	374.30255664974	1
4	25316	374.30255664974	0
4	25923	380.56159623275	1
4	25923	380.56159623275	0
4	26464	384.86798937498	1
4	26464	384.86798937498	0
4	27074	388.17909357568	1
4	27074	388.17909357568	0
4	27398	390.0239379567	1
4	27398	390.0239379567	0
4	27828	393.38566579131	1
4	27828	393.38566579131	0
4	28400	397.88210469529	1
4	28400	397.88210469529	0
4	28820	400.04483237807	1
4	28820	400.04483237807	0
4	29310	403.45764517639	1
4	29310	403.45764517639	0
4	30035	406.79923844484	1
4	30167	408.18874352363	0
4	30735	413.05625536071	1
4	30735	413.05625536071	0
4	30939	417.31645738849	1
4	30939	417.31645738849	0
4	31116	419.26505685386	1
4	31116	419.26505685386	0
4	31415	421.01694569327	1
4	31415	421.01694569327	0
4	31907	429.99968850228	1
4	31907	429.99968850228	0
4	32387	433.17066580203	1
4	32387	433.17066580203	0
4	32625	434.96597094132	1
4	32625	434.96597094132	0
4	32997	437.08336855867	1
4	32997	437.08336855867	0
4	33428	442.73527866796	1
4	33428	442.73527866796	0
4	33891	445.13957820848	1
4	33891	445.13957820848	0
4	34226	448.14746931425	1
4	34226	448.14746931425	0
4	34740	452.46562043651	1
4	34740	452.46562043651	0
4	35165	457.51188859362	1
4	35165	457.51188859362	0
4	35925	469.58874194524	1
4	35925	469.58874194524	0
4	36231	474.04590437807	1
4	36231	474.04590437807	0
4	36494	480.74691966958	1
4	36494	480.74691966958	0
4	36791	486.60881364599	1
4	36791	486.60881364599	0
4	37095	491.85413147001	1
4	37095	491.85413147001	0
4	37978	563.18833301836	1
4	37978	563.18833301836	0
4	38282	565.41064274371	1
4	38282	565.41064274371	0
4	39870	573.51809445984	1
4	39870	573.51809445984	0
4	40216	575.72579119009	1
4	40216	575.72579119009	0
4	40499	577.76059533815	1
4	40499	577.76059533815	0
4	41071	582.34534431681	1
4	41071	582.34534431681	0
4	41535	586.58409774098	1
4	41535	586.58409774098	0
4	41755	588.55690708746	1
4	41755	588.55690708746	0
4	42743	594.2567778971	1
4	42743	594.2567778971	0
4	43145	596.11671014393	1
4	43145	596.11671014393	0
4	43511	612.9403632859	1
4	43511	612.9403632859	0
4	43796	615.04454561365	1
4	43877	616.04266215829	0
4	44611	626.17345844172	1
4	44611	626.17345844172	0
4	45008	629.06953563272	1
4	45008	629.06953563272	0
4	46843	646.84695697261	1
4	46843	646.84695697261	0
4	47192	649.13204724849	1
4	47473	652.47448374079	0
4	47786	654.95197515732	1
4	47786	654.95197515732	0
4	48550	676.58278136675	1
4	48550	676.58278136675	0
4	49080	685.34284676364	1
4	49080	685.34284676364	0
4	49502	725.88533323902	1
4	49502	725.88533323902	0
4	49679	736.94304590354	1
4	49679	736.94304590354	0
4	49836	748.02911708194	1
4	49836	748.02911708194	0
4	50009	750.43160613765	1
4	50009	750.43160613765	0
4	50608	755.66552250973	1
4	50608	755.66552250973	0
4	50912	758.25918529268	1
4	50912	758.25918529268	0
4	51485	761.12503825217	1
4	51485	761.12503825217	0
4	52170	765.92476951713	1
4	52170	765.92476951713	0
4	52972	770.12623889242	1
4	52972	770.12623889242	0
4	53948	777.3380073787	1
4	53948	777.3380073787	0
4	54159	779.98319515952	1
4	54159	779.98319515952	0
4	54718	791.0755616986	1
4	54718	791.0755616986	0
4	55145	799.91132027505	1
4	55145	799.91132027505	0
4	55708	803.3326271311	1
4	55708	803.3326271311	0
4	56602	808.76165889053	1
4	56602	808.76165889053	0
4	57029	814.37587779135	1
4	57029	814.37587779135	0
4	57346	821.54535964687	1
4	57346	821.54535964687	0
4	57683	825.38522634259	1
4	57683	825.38522634259	0
4	57851	829.2083046811	1
4	57851	829.2083046811	0
4	58207	833.24882175827	1
4	58207	833.24882175827	0
4	59510	849.44636492594	1
4	59510	849.44636492594	0
4	59987	857.95040667804	1
4	59987	857.95040667804	0
4	60528	869.33405801128	1
4	60528	869.33405801128	0
4	60851	879.2456138736	1
4	60851	879.2456138736	0
4	61358	891.00924250114	1
4	61358	891.00924250114	0
4	61521	894.64694676459	1
4	61521	894.64694676459	0
4	61697	903.95626679455	1
4	61697	903.95626679455	0
4	62076	925.31480030825	1
4	62076	925.31480030825	0
4	62226	927.36292040029	1
4	62226	927.36292040029	0
4	62699	932.97200745921	1
4	62699	932.97200745921	0
4	62948	934.78311440679	1
4	62948	934.78311440679	0
4	63725	940.6339802594	1
4	63725	940.6339802594	0
4	64261	950.51961398987	1
4	64261	950.51961398987	0
4	64435	952.54371580329	1
4	64462	952.89187482668	0
4	64799	957.84881079001	1
4	64799	957.84881079001	0
4	65220	965.03436110438	1
4	65220	965.03436110438	0
4	65680	971.33583356035	1
4	65680	971.33583356035	0
4	66205	978.52849507731	1
4	66205	978.52849507731	0
4	66561	986.78338097733	1
4	66639	987.19681338459	0
4	67097	990.7160446684	1
4	67097	990.7160446684	0
4	67622	994.46350207651	1
4	67622	994.46350207651	0
4	68326	1001.44136965238	1
4	68326	1001.44136965238	0
4	69165	1006.99603809767	1
4	69165	1006.99603809767	0
4	69579	1010.35210844226	1
4	69579	1010.35210844226	0
4	70018	1019.38735102833	1
4	70018	1019.38735102833	0
4	70270	1021.91136093872	1
4	70270	1021.91136093872	0
4	70841	1026.255581085	1
4	70841	1026.255581085	0
4	71097	1030.42880131395	1
4	71097	1030.42880131395	0
4	71597	1046.78966313783	1
4	71597	1046.78966313783	0
4	71966	1048.74038176371	1
4	71974	1049.84138490188	0
4	72979	1063.55654813826	1
4	72979	1063.55654813826	0
4	73478	1071.71535745133	1
4	73478	1071.71535745133	0
4	73952	1084.46225775982	1
4	73952	1084.46225775982	0
4	74137	1103.35413193556	1
4	74137	1103.35413193556	0
4	74466	1113.1725333211	1
4	74466	1113.1725333211	0
4	74836	1120.63098720356	1
4	74836	1120.63098720356	0
4	75158	1123.35285861289	1
4	75158	1123.35285861289	0
4	75486	1131.66881497451	1
4	75486	1131.66881497451	0
4	75937	1139.49647689745	1
4	75937	1139.49647689745	0
4	76156	1141.56750134552	1
4	76156	1141.56750134552	0
4	76455	1143.9165698621	1
4	76455	1143.9165698621	0
4	77004	1150.11098656516	1
4	77004	1150.11098656516	0
4	77293	1161.72207833695	1
4	77293	1161.72207833695	0
4	77758	1164.8664534199	1
4	77758	1164.8664534199	0
4	78055	1166.74986453294	1
4	78055	1166.74986453294	0
4	78464	1171.31545642473	1
4	78464	1171.31545642473	0
4	79457	1177.59475288192	1
4	79457	1177.59475288192	0
4	79856	1180.88371067651	1
4	79856	1180.88371067651	0
4	80062	1182.59464633789	1
4	80062	1182.59464633789	0
4	80830	1196.66473653132	1
4	80830	1196.66473653132	0
4	81708	1204.57169529423	1
4	81708	1204.57169529423	0
4	82532	1230.88729146156	1
4	82532	1230.88729146156	0
4	82792	1232.8303143026	1
4	82792	1232.8303143026	0
4	83115	1241.27406456905	1
4	83115	1241.27406456905	0
4	83417	1249.04010868373	1
4	83417	1249.04010868373	0
4	84066	1255.02655246989	1
4	84066	1255.02655246989	0
4	84457	1258.31221140018	1
4	84457	1258.31221140018	0
4	85075	1268.27013213734	1
4	85075	1268.27013213734	0
4	85549	1283.52676154334	1
4	85549	1283.52676154334	0
4	85793	1285.7320720846	1
4	85793	1285.7320720846	0
4	86158	1300.1992076809	1
4	86158	1300.1992076809	0
4	87733	1317.8627374112	1
4	87733	1317.8627374112	0
4	87915	1320.18894811132	1
4	87915	1320.18894811132	0
4	88369	1323.61047191545	1
4	88369	1323.61047191545	0
4	89284	1342.21507407787	1
4	89284	1342.21507407787	0
4	89554	1343.90482692921	1
4	89577	1344.50640806324	0
4	90791	1363.37779318932	1
4	90791	1363.37779318932	0
4	91018	1367.995602009	1
4	91018	1367.995602009	0
4	91471	1373.53836284627	1
4	91471	1373.53836284627	0
4	92490	1389.03765926585	1
4	92490	1389.03765926585	0
4	93144	1392.81641578761	1
4	93144	1392.81641578761	0
4	93829	1408.4370632372	1
4	93829	1408.4370632372	0
4	94018	1412.223987299	1
4	94018	1412.223987299	0
4	94216	1414.47792919856	1
4	94216	1414.47792919856	0
4	94401	1417.81735677217	1
4	94401	1417.81735677217	0
4	94637	1421.19991736155	1
4	94637	1421.19991736155	0
4	94888	1424.30811810725	1
4	94921	1424.6370697146	0
4	95218	1426.63627265661	1
4	95218	1426.63627265661	0
4	95753	1430.4622771056	1
4	95753	1430.4622771056	0
4	95921	1433.92571142726	1
4	95921	1433.92571142726	0
4	96546	1438.6663380119	1
4	96546	1438.6663380119	0
4	97583	1467.14736312172	1
4	97583	1467.14736312172	0
4	97846	1473.67644391219	1
4	97846	1473.67644391219	0
4	98251	1484.75414827665	1
4	98251	1484.75414827665	0
4	98907	1496.17443554263	1
4	98907	1496.17443554263	0
4	99249	1498.7898131705	1
4	99249	1498.7898131705	0
4	99947	1508.00291955527	1
4	99947	1508.00291955527	0
4	100134	1511.58088986064	1
4	100134	1511.58088986064	0
4	100278	1513.80312008509	1
4	100278	1513.80312008509	0
4	100652	1519.09054145515	1
4	100652	1519.09054145515	0
4	100947	1521.74987917805	1
4	100947	1521.74987917805	0
4	101702	1532.73059156879	1
4	101702	1532.73059156879	0
4	102448	1543.42481508468	1
4	102448	1543.42481508468	0
4	103157	1564.13744531219	1
4	103157	1564.13744531219	0
4	103881	1571.00760281629	1
4	103881	1571.00760281629	0
4	104631	1577.31170186678	1
4	104631	1577.31170186678	0
4	105100	1584.1797611279	1
4	105100	1584.1797611279	0
4	105436	1589.62901755745	1
4	105436	1589.62901755745	0
4	105631	1604.94764417058	1
4	105631	1604.94764417058	0
4	106151	1610.69076173227	1
4	106151	1610.69076173227	0
4	106731	1614.98965656692	1
4	106731	1614.98965656692	0
4	107291	1621.83801208811	1
4	107291	1621.83801208811	0
4	107487	1625.88531575998	1
4	107487	1625.88531575998	0
4	108375	1633.98892478688	1
4	108375	1633.98892478688	0
4	108953	1643.4019492741	1
4	108953	1643.4019492741	0
4	109364	1664.49305171619	1
4	109364	1664.49305171619	0
4	110139	1676.83290203663	1
4	110139	1676.83290203663	0
4	110316	1678.66804716891	1
4	110484	1681.74261733094	0
4	110634	1684.05494361194	1
4	110664	1684.43554034262	0
4	111660	1695.74790209011	1
4	111660	1695.74790209011	0
4	111809	1699.66249513714	1
4	111809	1699.66249513714	0
4	112144	1701.75422680448	1
4	112144	1701.75422680448	0
4	112949	1704.82758147483	1
4	112949	1704.82758147483	0
4	113787	1719.98374740317	1
4	113787	1719.98374740317	0
4	114004	1723.5744723192	1
4	114004	1723.5744723192	0
4	114798	1736.90156757781	1
4	114798	1736.90156757781	0
4	115037	1738.67989046037	1
4	115080	1739.00283583526	0
4	115813	1749.60568976094	1
4	115813	1749.60568976094	0
4	116156	1754.03100084088	1
4	116156	1754.03100084088	0
4	116856	1762.80903194542	1
4	116856	1762.80903194542	0
4	117282	1770.06465914334	1
4	117282	1770.06465914334	0
4	117636	1774.93086446424	1
4	117636	1774.93086446424	0
4	117977	1782.33825025822	1
4	117977	1782.33825025822	0
4	118657	1791.70952244093	1
4	118657	1791.70952244093	0
4	118966	1795.09871989226	1
4	118966	1795.09871989226	0
4	119167	1797.83017533226	1
4	119167	1797.83017533226	0
4	119670	1806.9082176337	1
4	119670	1806.9082176337	0
4	121170	1841.30232834471	1
4	121170	1841.30232834471	0
4	121633	1850.15729584003	1
4	121633	1850.15729584003	0
4	122284	1863.08100667341	1
4	122284	1863.08100667341	0
4	122485	1865.90821015498	1
4	122485	1865.90821015498	0
4	122886	1869.26873879762	1
4	122886	1869.26873879762	0
4	123541	1878.21256285694	1
4	123541	1878.21256285694	0
4	124155	1895.5576385878	1
4	124155	1895.5576385878	0
4	124471	1899.89943556129	1
4	124471	1899.89943556129	0
4	124913	1903.71136969702	1
4	124913	1903.71136969702	0
4	125169	1908.28067969368	1
4	125169	1908.28067969368	0
4	125561	1914.16322598553	1
4	125561	1914.16322598553	0
4	125666	1915.8745898651	1
4	125666	1915.8745898651	0
4	125889	1918.16663798567	1
4	125889	1918.16663798567	0
4	126068	1920.12848175174	1
4	126068	1920.12848175174	0
4	126328	1922.92127777031	1
4	126328	1922.92127777031	0
4	126862	1925.2166424006	1
4	126862	1925.2166424006	0
4	127514	1927.97724769203	1
4	127514	1927.97724769203	0
4	127743	1930.06848669933	1
4	127743	1930.06848669933	0
4	128233	1937.78405727352	1
4	128233	1937.78405727352	0
4	128436	1941.97785201843	1
4	128436	1941.97785201843	0
4	128607	1943.72258495757	1
4	128607	1943.72258495757	0
4	128914	1951.33198362538	1
4	128914	1951.33198362538	0
4	129188	1954.37367614791	1
4	129188	1954.37367614791	0
4	129433	1957.02954555579	1
4	129433	1957.02954555579	0
4	130008	1969.07698412026	1
4	130008	1969.07698412026	0
4	130232	1971.21913864219	1
4	130232	1971.21913864219	0
4	130923	1984.87590355289	1
4	130923	1984.87590355289	0
4	131317	1987.81910454432	1
4	131317	1987.81910454432	0
4	131980	1995.59246544735	1
4	131980	1995.59246544735	0
4	132537	1999.99344663325	1
4	132537	1999.99344663325	0
4	132843	2003.44212709071	1
4	132843	2003.44212709071	0
4	133093	2011.7096507085	1
4	133093	2011.7096507085	0
4	133811	2032.84227437354	1
4	133811	2032.84227437354	0
4	134139	2035.92977852014	1
4	134139	2035.92977852014	0
4	134497	2038.95891842798	1
4	134497	2038.95891842798	0
4	135177	2047.08336109075	1
4	135177	2047.08336109075	0
4	135346	2058.7318112169	1
4	135346	2058.7318112169	0
4	135544	2060.82382894507	1
4	135550	2061.35879344931	0
4	135768	2064.80152329069	1
4	135768	2064.80152329069	0
4	136120	2066.65087362862	1
4	136120	2066.65087362862	0
4	136546	2073.35295436243	1
4	136546	2073.35295436243	0
4	136876	2085.06479104329	1
4	136876	2085.06479104329	0
4	137207	2087.48493377913	1
4	137207	2087.48493377913	0
4	137778	2097.50600005114	1
4	137778	2097.50600005114	0
4	137922	2101.04561228674	1
4	137922	2101.04561228674	0
4	138662	2106.50919642417	1
4	138662	2106.50919642417	0
4	139261	2118.72076861295	1
4	139261	2118.72076861295	0
4	139614	2130.84979167344	1
4	139614	2130.84979167344	0
4	139837	2133.23957130006	1
4	139837	2133.23957130006	0
4	140409	2137.02482055818	1
4	140409	2137.02482055818	0
4	140686	2141.89612818797	1
4	140686	2141.89612818797	0
4	141308	2149.67216282522	1
4	141308	2149.67216282522	0
4	141791	2153.67453390604	1
4	141791	2153.67453390604	0
4	142835	2166.5015750654	1
4	142835	2166.5015750654	0
4	143548	2170.38152459663	1
4	143548	2170.38152459663	0
4	144330	2175.26631813681	1
4	144330	2175.26631813681	0
4	144839	2188.5450408406	1
4	144839	2188.5450408406	0
4	146013	2208.59120600566	1
4	146013	2208.59120600566	0
4	146981	2236.63822981582	1
4	146981	2236.63822981582	0
4	147518	2242.79628716627	1
4	147518	2242.79628716627	0
4	148037	2252.7751924443	1
4	148037	2252.7751924443	0
4	148198	2254.4978074477	1
4	148198	2254.4978074477	0
4	148581	2270.09613111636	1
4	148581	2270.09613111636	0
4	148728	2272.47230473558	1
4	148728	2272.47230473558	0
4	150337	2285.23854425333	1
4	150337	2285.23854425333	0
4	150830	2299.32857681804	1
4	150830	2299.32857681804	0
4	151207	2303.36686668538	1
4	151207	2303.36686668538	0
4	151592	2310.55612535225	1
4	151592	2310.55612535225	0
4	151861	2314.58905495791	1
4	151861	2314.58905495791	0
4	152035	2316.35139783417	1
4	152035	2316.35139783417	0
4	152307	2318.94649704889	1
4	152307	2318.94649704889	0
4	152952	2325.81100950389	1
4	152952	2325.81100950389	0
4	154048	2342.88046691347	1
4	154048	2342.88046691347	0
4	154613	2349.56695580647	1
4	154613	2349.56695580647	0
4	155280	2353.35881870069	1
4	155280	2353.35881870069	0
4	156537	2373.23899126984	1
4	156537	2373.23899126984	0
4	156709	2377.49082073987	1
4	156709	2377.49082073987	0
4	156948	2380.1842836064	1
4	156948	2380.1842836064	0
4	157451	2391.14443819352	1
4	157451	2391.14443819352	0
4	157738	2393.89922887622	1
4	157738	2393.89922887622	0
4	158517	2409.04046403121	1
4	158517	2409.04046403121	0
4	158859	2415.25309471657	1
4	158859	2415.25309471657	0
4	159613	2424.31739242317	1
4	159613	2424.31739242317	0
4	159866	2428.33935362323	1
4	159866	2428.33935362323	0
4	160085	2442.81346951296	1
4	160085	2442.81346951296	0
4	160637	2452.32262079105	1
4	160637	2452.32262079105	0
4	161193	2458.96421712679	1
4	161193	2458.96421712679	0
4	161411	2462.79513973544	1
4	161411	2462.79513973544	0
4	161977	2477.39015453907	1
4	161977	2477.39015453907	0
4	162251	2479.52460799166	1
4	162257	2480.05195780127	0
4	162405	2483.26458734629	1
4	162405	2483.26458734629	0
4	162936	2486.9410221481	1
4	162936	2486.9410221481	0
4	163400	2492.42349268206	1
4	163400	2492.42349268206	0
4	163807	2495.90722654531	1
4	163812	2496.5318540934	0
4	163953	2500.50554769298	1
4	163953	2500.50554769298	0
4	164220	2503.40240921462	1
4	164220	2503.40240921462	0
4	164476	2507.38132249243	1
4	164476	2507.38132249243	0
4	165206	2516.58083830371	1
4	165206	2516.58083830371	0
4	165970	2519.95372175166	1
4	165979	2520.05928857943	0
4	166844	2532.57390435871	1
4	166844	2532.57390435871	0
4	167305	2536.24888549188	1
4	167305	2536.24888549188	0
4	168450	2553.44940969199	1
4	168450	2553.44940969199	0
4	168769	2557.1349443293	1
4	168769	2557.1349443293	0
4	169104	2565.93547595115	1
4	169104	2565.93547595115	0
4	169469	2569.74189940726	1
4	169469	2569.74189940726	0
4	169876	2584.24838533214	1
4	169876	2584.24838533214	0
4	170677	2596.76086450212	1
4	170677	2596.76086450212	0
4	171417	2603.91371005315	1
4	171417	2603.91371005315	0
4	171698	2605.86837652465	1
4	171698	2605.86837652465	0
4	172010	2608.99806832552	1
4	172010	2608.99806832552	0
4	172505	2625.29463409533	1
4	172505	2625.29463409533	0
4	173288	2634.33301617969	1
4	173288	2634.33301617969	0
4	173548	2637.79106887031	1
4	173548	2637.79106887031	0
4	173972	2650.86112554092	1
4	173972	2650.86112554092	0
4	174224	2656.6413639514	1
4	174224	2656.6413639514	0
4	174438	2658.28923585989	1
4	174438	2658.28923585989	0
4	174664	2663.88939657807	1
4	174664	2663.88939657807	0
4	175357	2675.42733442633	1
4	175357	2675.42733442633	0
4	175653	2678.32524540221	1
4	175653	2678.32524540221	0
4	175840	2680.31436825936	1
4	175840	2680.31436825936	0
4	176025	2689.04260930445	1
4	176025	2689.04260930445	0
4	176360	2691.27472404872	1
4	176360	2691.27472404872	0
4	176866	2693.37075502216	1
4	176866	2693.37075502216	0
4	177353	2696.9990343073	1
4	177353	2696.9990343073	0
4	178177	2703.96745592679	1
4	178177	2703.96745592679	0
4	178794	2720.53134172915	1
4	178794	2720.53134172915	0
4	180375	2744.0012872128	1
4	180375	2744.0012872128	0
4	181578	2757.11248682703	1
4	181578	2757.11248682703	0
4	182046	2766.31438396734	1
4	182046	2766.31438396734	0
4	182340	2769.15352715452	1
4	182340	2769.15352715452	0
4	182503	2776.28803531598	1
4	182503	2776.28803531598	0
4	182939	2779.97187247599	1
4	182939	2779.97187247599	0
4	183251	2784.03083807101	1
4	183251	2784.03083807101	0
4	183595	2786.29323170708	1
4	183595	2786.29323170708	0
4	183876	2788.16631723939	1
4	183876	2788.16631723939	0
4	184527	2803.97431781901	1
4	184527	2803.97431781901	0
4	184782	2805.96371112528	1
4	184782	2805.96371112528	0
4	185051	2808.33200493284	1
4	185051	2808.33200493284	0
4	185210	2810.53711206593	1
4	185210	2810.53711206593	0
4	185563	2815.52691113636	1
4	185563	2815.52691113636	0
4	185744	2824.80421621543	1
4	185744	2824.80421621543	0
4	186385	2838.84787887753	1
4	186385	2838.84787887753	0
4	187045	2844.04154662541	1
4	187045	2844.04154662541	0
4	187269	2846.20885586469	1
4	187269	2846.20885586469	0
4	187445	2850.89809986381	1
4	187445	2850.89809986381	0
4	187605	2857.09096504836	1
4	187605	2857.09096504836	0
4	187775	2860.39614875557	1
4	187775	2860.39614875557	0
4	188267	2868.98629887568	1
4	188267	2868.98629887568	0
4	188495	2872.37320108208	1
4	188495	2872.37320108208	0
4	188713	2874.10231408527	1
4	188713	2874.10231408527	0
4	189125	2878.1688902316	1
4	189125	2878.1688902316	0
4	189344	2880.99493745444	1
4	189467	2882.17585926881	0
4	189727	2885.94216713835	1
4	189727	2885.94216713835	0
4	190066	2890.77222894994	1
4	190066	2890.77222894994	0
4	190444	2897.13693990498	1
4	190444	2897.13693990498	0
4	190904	2903.05112010294	1
4	190904	2903.05112010294	0
4	191928	2915.254709301	1
4	191928	2915.254709301	0
4	192223	2919.08489596687	1
4	192229	2920.18921109933	0
4	192609	2923.38923239221	1
4	192609	2923.38923239221	0
4	193374	2933.62454839548	1
4	193374	2933.62454839548	0
4	193887	2951.47443121911	1
4	193887	2951.47443121911	0
4	194200	2956.04038692739	1
4	194200	2956.04038692739	0
4	194404	2962.22985625424	1
4	194404	2962.22985625424	0
4	194565	2965.91204211869	1
4	194565	2965.91204211869	0
4	194891	2968.21483341001	1
4	194891	2968.21483341001	0
4	195381	2972.79255327941	1
4	195381	2972.79255327941	0
4	195887	2980.99892377071	1
4	195887	2980.99892377071	0
4	196111	2985.30275086525	1
4	196111	2985.30275086525	0
4	196412	2991.84809233591	1
4	196412	2991.84809233591	0
4	196862	2994.57417493352	1
4	196862	2994.57417493352	0
4	197392	3004.82592628773	1
4	197392	3004.82592628773	0
4	197784	3009.27373800122	1
4	197784	3009.27373800122	0
4	197976	3012.16107145357	1
4	197976	3012.16107145357	0
4	198454	3018.41226773361	1
4	198454	3018.41226773361	0
4	198897	3023.62677380892	1
4	198897	3023.62677380892	0
4	199301	3028.67209256122	1
4	199301	3028.67209256122	0
4	199750	3039.04471328751	1
4	199750	3039.04471328751	0
4	200139	3049.05749846894	1
4	200139	3049.05749846894	0
4	200476	3052.25751806241	1
4	200476	3052.25751806241	0
4	200660	3054.54850556883	1
4	200660	3054.54850556883	0
4	201010	3057.91242921103	1
4	201010	3057.91242921103	0
4	201386	3063.0301879085	1
4	201386	3063.0301879085	0
4	201686	3074.59274755568	1
4	201686	3074.59274755568	0
4	201910	3079.60901780239	1
4	201910	3079.60901780239	0
4	203191	3098.55437407283	1
4	203191	3098.55437407283	0
4	204224	3112.27906494708	1
4	204224	3112.27906494708	0
4	204801	3120.21783891253	1
4	204801	3120.21783891253	0
4	205519	3130.10968772484	1
4	205519	3130.10968772484	0
4	205748	3134.04412237154	1
4	205748	3134.04412237154	0
4	206511	3147.17073799984	1
4	206511	3147.17073799984	0
4	206852	3148.97856916618	1
4	206852	3148.97856916618	0
4	207176	3153.46210607435	1
4	207176	3153.46210607435	0
4	207388	3155.24252762268	1
4	207388	3155.24252762268	0
4	207874	3161.34294980679	1
4	207874	3161.34294980679	0
4	208443	3169.0859122996	1
4	208443	3169.0859122996	0
4	208710	3171.3092153472	1
4	208710	3171.3092153472	0
4	209209	3180.01988081728	1
4	209209	3180.01988081728	0
4	209386	3185.57035921049	1
4	209386	3185.57035921049	0
4	209732	3192.91236129738	1
4	209732	3192.91236129738	0
4	210385	3201.55386898943	1
4	210385	3201.55386898943	0
4	210949	3205.45181248041	1
4	210949	3205.45181248041	0
4	211410	3214.8108754837	1
4	211410	3214.8108754837	0
4	211629	3221.01558591512	1
4	211629	3221.01558591512	0
4	211970	3227.91341336382	1
4	211970	3227.91341336382	0
4	213227	3243.10234893444	1
4	213227	3243.10234893444	0
4	213375	3244.95139309891	1
4	213375	3244.95139309891	0
4	213696	3251.52027675762	1
4	213696	3251.52027675762	0
4	213933	3255.46344092623	1
4	213933	3255.46344092623	0
4	214096	3257.27985042599	1
4	214096	3257.27985042599	0
4	214440	3269.11229720697	1
4	214440	3269.11229720697	0
4	214813	3273.32396903285	1
4	214813	3273.32396903285	0
4	215915	3296.69320781951	1
4	215915	3296.69320781951	0
4	216263	3302.99183076677	1
4	216263	3302.99183076677	0
4	216593	3306.22473539769	1
4	216593	3306.22473539769	0
4	217122	3307.98185120423	1
4	217122	3307.98185120423	0
4	217901	3320.33784584214	1
4	217901	3320.33784584214	0
4	218605	3333.38868066263	1
4	218605	3333.38868066263	0
4	220351	3355.20865151958	1
4	220351	3355.20865151958	0
4	220780	3360.04153453541	1
4	220887	3360.84579249108	0
4	221068	3365.45351402427	1
4	221068	3365.45351402427	0
4	221442	3372.66107586773	1
4	221442	3372.66107586773	0
4	221623	3378.77920493814	1
4	221623	3378.77920493814	0
4	221947	3384.38025361968	1
4	221947	3384.38025361968	0
4	222115	3386.7065716116	1
4	222115	3386.7065716116	0
4	222398	3389.03615465351	1
4	222398	3389.03615465351	0
4	222628	3391.04547527849	1
4	222628	3391.04547527849	0
4	223054	3401.36745654917	1
4	223054	3401.36745654917	0
4	223461	3406.14488546935	1
4	223461	3406.14488546935	0
4	223984	3412.43753460006	1
4	223984	3412.43753460006	0
4	224462	3418.46589298196	1
4	224462	3418.46589298196	0
4	224653	3421.17800823702	1
4	224653	3421.17800823702	0
4	224867	3424.89712701857	1
4	224867	3424.89712701857	0
4	225555	3432.99614373643	1
4	225555	3432.99614373643	0
4	225896	3434.78494086802	1
4	225896	3434.78494086802	0
4	226209	3439.12940053791	1
4	226209	3439.12940053791	0
4	226357	3443.95251552289	1
4	226357	3443.95251552289	0
4	226690	3451.21001122123	1
4	226690	3451.21001122123	0
4	226911	3455.84488082054	1
4	226911	3455.84488082054	0
4	227056	3459.06653981948	1
4	227056	3459.06653981948	0
4	228389	3485.69709951675	1
4	228389	3485.69709951675	0
4	228688	3489.59090110947	1
4	228688	3489.59090110947	0
4	229246	3492.68102716039	1
4	229246	3492.68102716039	0
4	229785	3497.35993818579	1
4	229785	3497.35993818579	0
4	230217	3507.4104468296	1
4	230217	3507.4104468296	0
4	230584	3515.87279636069	1
4	230584	3515.87279636069	0
4	231633	3532.96020944991	1
4	231633	3532.96020944991	0
4	232347	3535.72075784917	1
4	232347	3535.72075784917	0
4	232804	3542.89684844367	1
4	232804	3542.89684844367	0
4	233047	3544.9905867499	1
4	233047	3544.9905867499	0
4	233880	3565.23020818986	1
4	233880	3565.23020818986	0
4	234140	3569.9478852366	1
4	234140	3569.9478852366	0
4	234540	3573.3795247717	1
4	234540	3573.3795247717	0
4	234713	3575.31505478429	1
4	234713	3575.31505478429	0
4	235159	3581.09935255867	1
4	235159	3581.09935255867	0
4	235575	3588.52748547794	1
4	235575	3588.52748547794	0
4	235902	3594.28427734564	1
4	235902	3594.28427734564	0
5	11621	70.28901146914	1.71213125165
5	12637	180.67659025332	1.71213255097
5	15848	204.64743564016	1.7121303013
5	17886	215.64654668065	1.71213082315
5	24750	307.72783267629	1.71213217604
5	37978	563.18833301836	1.7121330861
5	51485	761.12503825217	1.71212973471
5	57029	814.37587779135	1.71213122052
5	64799	957.84881079001	1.71213137245
5	71597	1046.78966313783	1.71213066997
5	76156	1141.56750134552	1.71213004697
5	78464	1171.31545642473	1.71213082315
5	82532	1230.88729146156	1.71213059251
5	94216	1414.47792919856	1.71213156673
5	100278	1513.80312008509	1.71213041904
5	109364	1664.49305171619	1.71212977926
5	114798	1736.90156757781	1.71213082315
5	125889	1918.16663798567	1.71213097711
5	126328	1922.92127777031	1.71213177782
5	128233	1937.78405727352	1.71213122922
5	130008	1969.07698412026	1.7121334197
5	130232	1971.21913864219	1.71212971337
5	140686	2141.89612818797	1.71213021729
5	171698	2605.86837652465	1.71213057881
5	174224	2656.6413639514	1.71212998906
5	175357	2675.42733442633	1.71213071648
5	182046	2766.31438396734	1.71213069624
5	185051	2808.33200493284	1.71213060533
5	187045	2844.04154662541	1.71212998906
5	187445	2850.89809986381	1.7121309762
5	188267	2868.98629887568	1.71212973471
5	189125	2878.1688902316	1.71213456708
5	192229	2920.18921109933	2.81644635298
5	196412	2991.84809233591	1.71213041904
5	209209	3180.01988081728	1.71213059251
5	210385	3201.55386898943	1.71213082315
5	210949	3205.45181248041	1.71212971337
5	214813	3273.32396903285	1.7121305821
5	223054	3401.36745654917	1.71212971337
5	232804	3542.89684844367	1.71213057881
6	11621	70.28901146914	1.71213125165
6	12637	180.67659025332	1.71213255097
6	15848	204.64743564016	1.7121303013
6	17886	215.64654668065	1.71213082315
6	24750	307.72783267629	1.71213217604
6	37978	563.18833301836	1.7121330861
6	51485	761.12503825217	1.71212973471
6	57029	814.37587779135	1.71213122052
6	64799	957.84881079001	1.71213137245
6	71597	1046.78966313783	1.71213066997
6	76156	1141.56750134552	1.71213004697
6	78464	1171.31545642473	1.71213082315
6	82532	1230.88729146156	1.71213059251
6	94216	1414.47792919856	1.71213156673
6	100278	1513.80312008509	1.71213041904
6	109364	1664.49305171619	1.71212977926
6	114798	1736.90156757781	1.71213082315
6	125889	1918.16663798567	1.71213097711
6	126328	1922.92127777031	1.71213177782
6	128233	1937.78405727352	1.71213122922
6	130008	1969.07698412026	1.7121334197
6	130232	1971.21913864219	1.71212971337
6	140686	2141.89612818797	1.71213021729
6	171698	2605.86837652465	1.71213057881
6	174224	2656.6413639514	1.71212998906
6	175357	2675.42733442633	1.71213071648
6	182046	2766.31438396734	1.71213069624
6	185051	2808.33200493284	1.71213060533
6	187045	2844.04154662541	1.71212998906
6	187445	2850.89809986381	1.7121309762
6	188267	2868.98629887568	1.71212973471
6	189125	2878.1688902316	1.71213456708
6	192229	2920.18921109933	2.81644635298
6	196412	2991.84809233591	1.71213041904
6	209209	3180.01988081728	1.71213059251
6	210385	3201.55386898943	1.71213082315
6	210949	3205.45181248041	1.71212971337
6	214813	3273.32396903285	1.7121305821
6	223054	3401.36745654917	1.71212971337
6	232804	3542.89684844367	1.71213057881
7	11657	82.38842775347	1143.1842454157
7	21432	258.75078803325	404.23342006379
7	32065	431.45853482583	760.95558502543
7	44774	627.69023576909	1064.0236951649
7	54931	799.14758860537	209.48222170901
7	67221	992.75137110031	1427.1515105517
7	78723	1173.50001047811	671.69746609647
7	92276	1387.98996488982	680.71759820563
7	103560	1569.29547184009	264.08500788644
7	115572	1747.89355878474	860.85772912084
7	126494	1924.25066684872	27.414193511841
7	137576	2095.79386657094	1421.5265036352
7	149004	2275.61281723188	107.56723319069
7	162446	2483.30604432177	889.637688911
7	174789	2665.79435537022	670.4189213267
7	187280	2849.18596888761	40.221876406518
7	199507	3037.33258231131	3545.4777540501
7	211499	3220.4408435148	718.78892928437
7	223249	3405.11416101027	26.571246761353
7	234843	3579.38722158247	266.64509692346
8	11816	89.36081968601	254.26617038464
8	21902	260.86398596679	179.12963231237
8	34433	450.75349000957	512.00969335655
8	44694	627.35740520578	278.43502382714
8	57042	819.83322921993	970.66198040606
8	68119	1000.16559521603	165.04778901235
8	81557	1202.85956486729	249.31527534739
8	93605	1406.72493281026	523.21221551612
8	109231	1663.67604826261	555.24633610079
8	121492	1849.11167545219	583.2618918231
8	134697	2044.05663091132	2106.4076981158
8	149473	2278.07424378478	54.917869140281
8	163105	2489.22323646569	851.35534051144
8	174711	2665.55354574602	2099.46476677
8	186255	2838.17429051202	419.87088354295
8	198662	3021.91464338198	251.68987922747
8	209998	3198.49819421963	273.79211832521
8	221961	3384.99444118466	1289.9936611843
8	235251	3582.58582451427	26.90050855671
9	11964	91.07295011295	1.71213042694
9	12128	108.01828282295	1.71212967204
9	12344	110.23622171839	1.71213135992
9	13186	186.15662486732	1.71213003268
9	13683	191.50110155402	1.71213044884
9	14525	195.87082854731	2.87844150928
9	14985	198.66371867571	1.71213041626
9	15647	202.35425161978	1.71213006084
9	16292	207.4569569064	2.57924149557
9	18407	218.34926892459	2.16892666188
9	18679	222.55088904037	1.71213184029
9	19070	225.55676957608	1.71213010906
9	19635	230.01491321353	1.71213069624
9	22279	262.03945707876	1.71212971337
9	23483	271.18380550584	1.71212998906
9	23917	282.91920944377	1.7121304019
9	24369	293.53326314868	1.71213033338
9	24891	355.97858850488	1.71213004697
9	25316	374.30255664974	1.71213006084
9	25923	380.56159623275	1.7121305821
9	26464	384.86798937498	1.71212977926
9	27074	388.17909357568	1.71213057881
9	27398	390.0239379567	1.71213082315
9	27828	393.38566579131	1.71213008585
9	28400	397.88210469529	1.71213003268
9	28820	400.04483237807	1.71213010906
9	29310	403.45764517639	1.71213021852
9	30167	408.18874352363	3.1016348135
9	30735	413.05625536071	1.71213060533
9	30939	417.31645738849	1.71213122052
9	31116	419.26505685386	1.71213315617
9	31415	421.01694569327	1.71213043397
9	31907	429.99968850228	1.71213408774
9	32387	433.17066580203	1.7121309762
9	32625	434.96597094132	1.71212971337
9	32997	437.08336855867	1.71213072641
9	33428	442.73527866796	1.71213156673
9	33891	445.13957820848	1.71213059251
9	34226	448.14746931425	1.71213041904
9	34740	452.46562043651	1.71213042694
9	35165	457.51188859362	1.71213138965
9	35925	469.58874194524	1.71213133522
9	36231	474.04590437807	1.7121304019
9	36494	480.74691966958	1.71212967204
9	36791	486.60881364599	1.71213135992
9	37095	491.85413147001	1.71212998906
9	38282	565.41064274371	1.71213006084
9	39870	573.51809445984	1.71212977926
9	40216	575.72579119009	1.71213004697
9	40499	577.76059533815	1.71213044884
9	41071	582.34534431681	1.71213021852
9	41535	586.58409774098	1.71213097711
9	41755	588.55690708746	1.71212973471
9	42743	594.2567778971	1.71213010906
9	43145	596.11671014393	1.71213043397
9	43511	612.9403632859	1.71213069624
9	43877	616.04266215829	2.71024727105
9	44611	626.17345844172	1.71213158374
9	45008	629.06953563272	1.71213042694
9	46843	646.84695697261	1.7121304019
9	47473	652.47448374079	5.05456620567
9	47786	654.95197515732	1.7121303013
9	48550	676.58278136675	1.71213135992
9	49080	685.34284676364	1.71213249306
9	49502	725.88533323902	1.71213158023
9	49679	736.94304590354	1.7121305821
9	49836	748.02911708194	1.71213003268
9	50009	750.43160613765	1.71213006084
9	50608	755.66552250973	1.71213057881
9	50912	758.25918529268	1.71213004697
9	52170	765.92476951713	1.71213085436
9	52972	770.12623889242	1.71213043397
9	53948	777.3380073787	1.71212977926
9	54159	779.98319515952	1.71213008585
9	54718	791.0755616986	1.71213021729
9	55145	799.91132027505	1.71213041904
9	55708	803.3326271311	1.71213041626
9	56602	808.76165889053	1.71213320024
9	57346	821.54535964687	1.71213042694
9	57683	825.38522634259	1.71213059251
9	57851	829.2083046811	1.7121304019
9	58207	833.24882175827	1.7121303013
9	59510	849.44636492594	1.71213071648
9	59987	857.95040667804	1.71213066997
9	60528	869.33405801128	1.7121321457
9	60851	879.2456138736	1.71213125165
9	61358	891.00924250114	1.71213033338
9	61521	894.64694676459	1.71212971337
9	61697	903.95626679455	1.71212998906
9	62076	925.31480030825	1.71213158023
9	62226	927.36292040029	1.71213003268
9	62699	932.97200745921	1.7121330861
9	62948	934.78311440679	1.71213057881
9	63725	940.6339802594	1.71212967204
9	64261	950.51961398987	1.71213010906
9	64462	952.89187482668	2.06028987775
9	65220	965.03436110438	1.71213072641
9	65680	971.33583356035	1.71212977926
9	66205	978.52849507731	1.71213060533
9	66639	987.19681338459	2.12556362778
9	67097	990.7160446684	1.71213069624
9	67622	994.46350207651	1.7121309762
9	68326	1001.44136965238	1.71212973471
9	69165	1006.99603809767	1.7121303013
9	69579	1010.35210844226	1.71213006084
9	70018	1019.38735102833	1.71213122922
9	70270	1021.91136093872	1.71213059251
9	70841	1026.255581085	1.71213138965
9	71097	1030.42880131395	1.71213041626
9	71974	1049.84138490188	2.81313476443
9	72979	1063.55654813826	1.71213283738
9	73478	1071.71535745133	1.71213135992
9	73952	1084.46225775982	1.71212971337
9	74137	1103.35413193556	1.71213003268
9	74466	1113.1725333211	1.71212998906
9	74836	1120.63098720356	1.71213057881
9	75158	1123.35285861289	1.71213010906
9	75486	1131.66881497451	1.71212967204
9	75937	1139.49647689745	1.7121305821
9	76455	1143.9165698621	1.7121309157
9	77004	1150.11098656516	1.71213021852
9	77293	1161.72207833695	1.71213060533
9	77758	1164.8664534199	1.71213041904
9	78055	1166.74986453294	1.71213122052
9	79457	1177.59475288192	1.71213108005
9	79856	1180.88371067651	1.7121303013
9	80062	1182.59464633789	1.71213097711
9	80830	1196.66473653132	1.71213272129
9	81708	1204.57169529423	1.71213042694
9	82792	1232.8303143026	1.71213008585
9	83115	1241.27406456905	1.71213066997
9	83417	1249.04010868373	1.71213168139
9	84066	1255.02655246989	1.7121310688
9	84457	1258.31221140018	1.71212971337
9	85075	1268.27013213734	1.71213135992
9	85549	1283.52676154334	1.71213003268
9	85793	1285.7320720846	1.7121304019
9	86158	1300.1992076809	1.71213010906
9	87733	1317.8627374112	1.71213323041
9	87915	1320.18894811132	1.7121305821
9	88369	1323.61047191545	1.71212973471
9	89284	1342.21507407787	1.71213041904
9	89577	1344.50640806324	2.31371195718
9	90791	1363.37779318932	1.71213122052
9	91018	1367.995602009	1.71213004697
9	91471	1373.53836284627	1.71213071648
9	92490	1389.03765926585	1.71212977926
9	93144	1392.81641578761	1.71213021729
9	93829	1408.4370632372	1.71213042694
9	94018	1412.223987299	1.71213008585
9	94401	1417.81735677217	1.71213108005
9	94637	1421.19991736155	1.7121303013
9	94921	1424.6370697146	2.04108265914
9	95218	1426.63627265661	1.71213066997
9	95753	1430.4622771056	1.71213215791
9	95921	1433.92571142726	1.71213059251
9	96546	1438.6663380119	1.71213221737
9	97583	1467.14736312172	1.71213069624
9	97846	1473.67644391219	1.71213003268
9	98251	1484.75414827665	1.7121304019
9	98907	1496.17443554263	1.71212967204
9	99249	1498.7898131705	1.71212998906
9	99947	1508.00291955527	1.71213072641
9	100134	1511.58088986064	1.71213206308
9	100652	1519.09054145515	1.71213169072
9	100947	1521.74987917805	1.71212973471
9	101702	1532.73059156879	1.71213006084
9	102448	1543.42481508468	1.71213082315
9	103157	1564.13744531219	1.71213272252
9	103881	1571.00760281629	1.7121309762
9	104631	1577.31170186678	1.71213184029
9	105100	1584.1797611279	1.71213021729
9	105436	1589.62901755745	1.71213004697
9	105631	1604.94764417058	1.71213105179
9	106151	1610.69076173227	1.71213156673
9	106731	1614.98965656692	1.71213127266
9	107291	1621.83801208811	1.71212971337
9	107487	1625.88531575998	1.71213008585
9	108375	1633.98892478688	1.71213033338
9	108953	1643.4019492741	1.71213069624
9	110139	1676.83290203663	1.71213057881
9	110484	1681.74261733094	4.78670074413
9	110664	1684.43554034262	2.09272676336
9	111660	1695.74790209011	1.71213323041
9	111809	1699.66249513714	1.7121304019
9	112144	1701.75422680448	1.71212973471
9	112949	1704.82758147483	1.71212967204
9	113787	1719.98374740317	1.71213006084
9	114004	1723.5744723192	1.71213118653
9	115080	1739.00283583526	2.03507559341
9	115813	1749.60568976094	1.7121309762
9	116156	1754.03100084088	1.7121309157
9	116856	1762.80903194542	1.71213004697
9	117282	1770.06465914334	1.71213021729
9	117636	1774.93086446424	1.71213138965
9	117977	1782.33825025822	1.71213105179
9	118657	1791.70952244093	1.7121310688
9	118966	1795.09871989226	1.71212971337
9	119167	1797.83017533226	1.71213008585
9	119670	1806.9082176337	1.71213125165
9	121170	1841.30232834471	1.7121328053
9	121633	1850.15729584003	1.71213069624
9	122284	1863.08100667341	1.71213041626
9	122485	1865.90821015498	1.71213010906
9	122886	1869.26873879762	1.71213041904
9	123541	1878.21256285694	1.71212967204
9	124155	1895.5576385878	1.71213060533
9	124471	1899.89943556129	1.71213006084
9	124913	1903.71136969702	1.71213133522
9	125169	1908.28067969368	1.71213082315
9	125561	1914.16322598553	1.71212973471
9	125666	1915.8745898651	1.71212998906
9	126068	1920.12848175174	1.71213118653
9	126862	1925.2166424006	1.71212977926
9	127514	1927.97724769203	1.71213021852
9	127743	1930.06848669933	1.71213169072
9	128436	1941.97785201843	1.71213158374
9	128607	1943.72258495757	1.71213071648
9	128914	1951.33198362538	1.71213021729
9	129188	1954.37367614791	1.71213138965
9	129433	1957.02954555579	1.71213004697
9	130923	1984.87590355289	1.71213162626
9	131317	1987.81910454432	1.71213008585
9	131980	1995.59246544735	1.71213033338
9	132537	1999.99344663325	1.71213066997
9	132843	2003.44212709071	1.7121310688
9	133093	2011.7096507085	1.71213125165
9	133811	2032.84227437354	1.71213069624
9	134139	2035.92977852014	1.71213041626
9	134497	2038.95891842798	1.71213059251
9	135177	2047.08336109075	1.71213057881
9	135346	2058.7318112169	1.71213085436
9	135550	2061.35879344931	2.24709508634
9	135768	2064.80152329069	1.71212967204
9	136120	2066.65087362862	1.71213010906
9	136546	2073.35295436243	1.71213003268
9	136876	2085.06479104329	1.71213006084
9	137207	2087.48493377913	1.71212998906
9	137778	2097.50600005114	1.7121334802
9	137922	2101.04561228674	1.71212977926
9	138662	2106.50919642417	1.71213044884
9	139261	2118.72076861295	1.71213082315
9	139614	2130.84979167344	1.71213071648
9	139837	2133.23957130006	1.71212973471
9	140409	2137.02482055818	1.71213004697
9	141308	2149.67216282522	1.71213137245
9	141791	2153.67453390604	1.7121309157
9	142835	2166.5015750654	1.71213008585
9	143548	2170.38152459663	1.71213043397
9	144330	2175.26631813681	1.7121310688
9	144839	2188.5450408406	1.71213127266
9	146013	2208.59120600566	1.71212971337
9	146981	2236.63822981582	1.7121328053
9	147518	2242.79628716627	1.71213041904
9	148037	2252.7751924443	1.71213085436
9	148198	2254.4978074477	1.71212967204
9	148581	2270.09613111636	1.71213177782
9	148728	2272.47230473558	1.71213006084
9	150337	2285.23854425333	1.71212998906
9	150830	2299.32857681804	1.7121304019
9	151207	2303.36686668538	1.71213071648
9	151592	2310.55612535225	1.71213004697
9	151861	2314.58905495791	1.71213021852
9	152035	2316.35139783417	1.71212973471
9	152307	2318.94649704889	1.71213105179
9	152952	2325.81100950389	1.71212977926
9	154048	2342.88046691347	1.71213097711
9	154613	2349.56695580647	1.71213008585
9	155280	2353.35881870069	1.7121310688
9	156537	2373.23899126984	1.71213358405
9	156709	2377.49082073987	1.71213033338
9	156948	2380.1842836064	1.71212971337
9	157451	2391.14443819352	1.71213069624
9	157738	2393.89922887622	1.71213122052
9	158517	2409.04046403121	1.71213043397
9	158859	2415.25309471657	1.71213041626
9	159613	2424.31739242317	1.7121303013
9	159866	2428.33935362323	1.71213041904
9	160085	2442.81346951296	1.71213168139
9	160637	2452.32262079105	1.71213010906
9	161193	2458.96421712679	1.71212967204
9	161411	2462.79513973544	1.71213060533
9	161977	2477.39015453907	1.71213082315
9	162257	2480.05195780127	2.23948053602
9	162405	2483.26458734629	1.71212998906
9	162936	2486.9410221481	1.71213118653
9	163400	2492.42349268206	1.71213004697
9	163812	2496.5318540934	2.33676076857
9	163953	2500.50554769298	1.71212973471
9	164220	2503.40240921462	1.71213006084
9	164476	2507.38132249243	1.71213021852
9	165206	2516.58083830371	1.71213021729
9	165979	2520.05928857943	1.81769816299
9	166844	2532.57390435871	1.71212977926
9	167305	2536.24888549188	1.71213127266
9	168450	2553.44940969199	1.71213097711
9	168769	2557.1349443293	1.71213008585
9	169104	2565.93547595115	1.71213069624
9	169469	2569.74189940726	1.71213122052
9	169876	2584.24838533214	1.71213033338
9	170677	2596.76086450212	1.71212971337
9	171417	2603.91371005315	1.7121303013
9	172010	2608.99806832552	1.71213041626
9	172505	2625.29463409533	1.71213418539
9	173288	2634.33301617969	1.71213010906
9	173548	2637.79106887031	1.71213044884
9	173972	2650.86112554092	1.71213003268
9	174438	2658.28923585989	1.71213072641
9	174664	2663.88939657807	1.71213004697
9	175653	2678.32524540221	1.71212973471
9	175840	2680.31436825936	1.71213021852
9	176025	2689.04260930445	1.71212967204
9	176360	2691.27472404872	1.71213021729
9	176866	2693.37075502216	1.71213122922
9	177353	2696.9990343073	1.7121304019
9	178177	2703.96745592679	1.71213006084
9	178794	2720.53134172915	1.7121305821
9	180375	2744.0012872128	1.71212977926
9	181578	2757.11248682703	1.71213283738
9	182340	2769.15352715452	1.71213108005
9	182503	2776.28803531598	1.7121303013
9	182939	2779.97187247599	1.71213156673
9	183251	2784.03083807101	1.71212971337
9	183595	2786.29323170708	1.71213059251
9	183876	2788.16631723939	1.7121321457
9	184527	2803.97431781901	1.71213008585
9	184782	2805.96371112528	1.71213010906
9	185210	2810.53711206593	1.71213041904
9	185563	2815.52691113636	1.71213085436
9	185744	2824.80421621543	1.71213003268
9	186385	2838.84787887753	1.71213004697
9	187269	2846.20885586469	1.712132262
9	187605	2857.09096504836	1.71213044884
9	187775	2860.39614875557	1.71212967204
9	188495	2872.37320108208	1.71213118653
9	188713	2874.10231408527	1.7121304019
9	189467	2882.17585926881	2.89305203289
9	189727	2885.94216713835	1.71213158023
9	190066	2890.77222894994	1.7121310688
9	190444	2897.13693990498	1.71213066997
9	190904	2903.05112010294	1.7121305821
9	191928	2915.254709301	1.71212977926
9	192609	2923.38923239221	1.71213006084
9	193374	2933.62454839548	1.7121309157
9	193887	2951.47443121911	1.71213108005
9	194200	2956.04038692739	1.7121303013
9	194404	2962.22985625424	1.71213057881
9	194565	2965.91204211869	1.71213059251
9	194891	2968.21483341001	1.71212971337
9	195381	2972.79255327941	1.71213041626
9	195887	2980.99892377071	1.71213069624
9	196111	2985.30275086525	1.71213162626
9	196862	2994.57417493352	1.71213209789
9	197392	3004.82592628773	1.71213332715
9	197784	3009.27373800122	1.71213003268
9	197976	3012.16107145357	1.71213010906
9	198454	3018.41226773361	1.71213004697
9	198897	3023.62677380892	1.71213042694
9	199301	3028.67209256122	1.71213043397
9	199750	3039.04471328751	1.7121309762
9	200139	3049.05749846894	1.71213021729
9	200476	3052.25751806241	1.71212973471
9	200660	3054.54850556883	1.7121304019
9	201010	3057.91242921103	1.71213044884
9	201386	3063.0301879085	1.71213158374
9	201686	3074.59274755568	1.71213066997
9	201910	3079.60901780239	1.7121310688
9	203191	3098.55437407283	1.7121305821
9	204224	3112.27906494708	1.71213006084
9	204801	3120.21783891253	1.71212998906
9	205519	3130.10968772484	1.71213358405
9	205748	3134.04412237154	1.71212977926
9	206511	3147.17073799984	1.71213033338
9	206852	3148.97856916618	1.71213057881
9	207176	3153.46210607435	1.71213069624
9	207388	3155.24252762268	1.71213137245
9	207874	3161.34294980679	1.71213060533
9	208443	3169.0859122996	1.7121303013
9	208710	3171.3092153472	1.71213125165
9	209386	3185.57035921049	1.71213003268
9	209732	3192.91236129738	1.71213008585
9	211410	3214.8108754837	1.71213072641
9	211629	3221.01558591512	1.71213004697
9	211970	3227.91341336382	1.71213041626
9	213227	3243.10234893444	1.71213118653
9	213375	3244.95139309891	1.71213044884
9	213696	3251.52027675762	1.71213272129
9	213933	3255.46344092623	1.71213122922
9	214096	3257.27985042599	1.71213066997
9	214440	3269.11229720697	1.71213021852
9	215915	3296.69320781951	1.71212967204
9	216263	3302.99183076677	1.71213138965
9	216593	3306.22473539769	1.71212977926
9	217122	3307.98185120423	1.71213127266
9	217901	3320.33784584214	1.71212973471
9	218605	3333.38868066263	1.71213158023
9	220351	3355.20865151958	1.7121303013
9	220887	3360.84579249108	2.51638854818
9	221068	3365.45351402427	1.71213057881
9	221442	3372.66107586773	1.71213258985
9	221623	3378.77920493814	1.71213309342
9	221947	3384.38025361968	1.71213060533
9	222115	3386.7065716116	1.71213042694
9	222398	3389.03615465351	1.71213135992
9	222628	3391.04547527849	1.71213069624
9	223461	3406.14488546935	1.71213041626
9	223984	3412.43753460006	1.71213010906
9	224462	3418.46589298196	1.7121304019
9	224653	3421.17800823702	1.71213044884
9	224867	3424.89712701857	1.71213177782
9	225555	3432.99614373643	1.71213004697
9	225896	3434.78494086802	1.71213021729
9	226209	3439.12940053791	1.71213158374
9	226357	3443.95251552289	1.71213043397
9	226690	3451.21001122123	1.71213066997
9	226911	3455.84488082054	1.7121305821
9	227056	3459.06653981948	1.71213021852
9	228389	3485.69709951675	1.71213266486
9	228688	3489.59090110947	1.71212977926
9	229246	3492.68102716039	1.71213217604
9	229785	3497.35993818579	1.71212973471
9	230217	3507.4104468296	1.71212998906
9	230584	3515.87279636069	1.71213033338
9	231633	3532.96020944991	1.71213059251
9	232347	3535.72075784917	1.71213003268
9	233047	3544.9905867499	1.71213008585
9	233880	3565.23020818986	1.71213158023
9	234140	3569.9478852366	1.71213060533
9	234540	3573.3795247717	1.71213085436
9	234713	3575.31505478429	1.71213041904
9	235159	3581.09935255867	1.7121309762
9	235575	3588.52748547794	1.71213010906
9	235902	3594.28427734564	1.71213044884
10	11964	91.07295011295	1.71213042694
10	12128	108.01828282295	1.71212967204
10	12344	110.23622171839	1.71213135992
10	13186	186.15662486732	1.71213003268
10	13683	191.50110155402	1.71213044884
10	14525	195.87082854731	2.87844150928
10	14985	198.66371867571	1.71213041626
10	15647	202.35425161978	1.71213006084
10	16292	207.4569569064	2.57924149557
10	18407	218.34926892459	2.16892666188
10	18679	222.55088904037	1.71213184029
10	19070	225.55676957608	1.71213010906
10	19635	230.01491321353	1.71213069624
10	22279	262.03945707876	1.71212971337
10	23483	271.18380550584	1.71212998906
10	23917	282.91920944377	1.7121304019
10	24369	293.53326314868	1.71213033338
10	24891	355.97858850488	1.71213004697
10	25316	374.30255664974	1.71213006084
10	25923	380.56159623275	1.7121305821
10	26464	384.86798937498	1.71212977926
10	27074	388.17909357568	1.71213057881
10	27398	390.0239379567	1.71213082315
10	27828	393.38566579131	1.71213008585
10	28400	397.88210469529	1.71213003268
10	28820	400.04483237807	1.71213010906
10	29310	403.45764517639	1.71213021852
10	30167	408.18874352363	3.1016348135
10	30735	413.05625536071	1.71213060533
10	30939	417.31645738849	1.71213122052
10	31116	419.26505685386	1.71213315617
10	31415	421.01694569327	1.71213043397
10	31907	429.99968850228	1.71213408774
10	32387	433.17066580203	1.7121309762
10	32625	434.96597094132	1.71212971337
10	32997	437.08336855867	1.71213072641
10	33428	442.73527866796	1.71213156673
10	33891	445.13957820848	1.71213059251
10	34226	448.14746931425	1.71213041904
10	34740	452.46562043651	1.71213042694
10	35165	457.51188859362	1.71213138965
10	35925	469.58874194524	1.71213133522
10	36231	474.04590437807	1.7121304019
10	36494	480.74691966958	1.71212967204
10	36791	486.60881364599	1.71213135992
10	37095	491.85413147001	1.71212998906
10	38282	565.41064274371	1.71213006084
10	39870	573.51809445984	1.71212977926
10	40216	575.72579119009	1.71213004697
10	40499	577.76059533815	1.71213044884
10	41071	582.34534431681	1.71213021852
10	41535	586.58409774098	1.71213097711
10	41755	588.55690708746	1.71212973471
10	42743	594.2567778971	1.71213010906
10	43145	596.11671014393	1.71213043397
10	43511	612.9403632859	1.71213069624
10	43877	616.04266215829	2.71024727105
10	44611	626.17345844172	1.71213158374
10	45008	629.06953563272	1.71213042694
10	46843	646.84695697261	1.7121304019
10	47473	652.47448374079	5.05456620567
10	47786	654.95197515732	1.7121303013
10	48550	676.58278136675	1.71213135992
10	49080	685.34284676364	1.71213249306
10	49502	725.88533323902	1.71213158023
10	49679	736.94304590354	1.7121305821
10	49836	748.02911708194	1.71213003268
10	50009	750.43160613765	1.71213006084
10	50608	755.66552250973	1.71213057881
10	50912	758.25918529268	1.71213004697
10	52170	765.92476951713	1.71213085436
10	52972	770.12623889242	1.71213043397
10	53948	777.3380073787	1.71212977926
10	54159	779.98319515952	1.71213008585
10	54718	791.0755616986	1.71213021729
10	55145	799.91132027505	1.71213041904
10	55708	803.3326271311	1.71213041626
10	56602	808.76165889053	1.71213320024
10	57346	821.54535964687	1.71213042694
10	57683	825.38522634259	1.71213059251
10	57851	829.2083046811	1.7121304019
10	58207	833.24882175827	1.7121303013
10	59510	849.44636492594	1.71213071648
10	59987	857.95040667804	1.71213066997
10	60528	869.33405801128	1.7121321457
10	60851	879.2456138736	1.71213125165
10	61358	891.00924250114	1.71213033338
10	61521	894.64694676459	1.71212971337
10	61697	903.95626679455	1.71212998906
10	62076	925.31480030825	1.71213158023
10	62226	927.36292040029	1.71213003268
10	62699	932.97200745921	1.7121330861
10	62948	934.78311440679	1.71213057881
10	63725	940.6339802594	1.71212967204
10	64261	950.51961398987	1.71213010906
10	64462	952.89187482668	2.06028987775
10	65220	965.03436110438	1.71213072641
10	65680	971.33583356035	1.71212977926
10	66205	978.52849507731	1.71213060533
10	66639	987.19681338459	2.12556362778
10	67097	990.7160446684	1.71213069624
10	67622	994.46350207651	1.7121309762
10	68326	1001.44136965238	1.71212973471
10	69165	1006.99603809767	1.7121303013
10	69579	1010.35210844226	1.71213006084
10	70018	1019.38735102833	1.71213122922
10	70270	1021.91136093872	1.71213059251
10	70841	1026.255581085	1.71213138965
10	71097	1030.42880131395	1.71213041626
10	71974	1049.84138490188	2.81313476443
10	72979	1063.55654813826	1.71213283738
10	73478	1071.71535745133	1.71213135992
10	73952	1084.46225775982	1.71212971337
10	74137	1103.35413193556	1.71213003268
10	74466	1113.1725333211	1.71212998906
10	74836	1120.63098720356	1.71213057881
10	75158	1123.35285861289	1.71213010906
10	75486	1131.66881497451	1.71212967204
10	75937	1139.49647689745	1.7121305821
10	76455	1143.9165698621	1.7121309157
10	77004	1150.11098656516	1.71213021852
10	77293	1161.72207833695	1.71213060533
10	77758	1164.8664534199	1.71213041904
10	78055	1166.74986453294	1.71213122052
10	79457	1177.59475288192	1.71213108005
10	79856	1180.88371067651	1.7121303013
10	80062	1182.59464633789	1.71213097711
10	80830	1196.66473653132	1.71213272129
10	81708	1204.57169529423	1.71213042694
10	82792	1232.8303143026	1.71213008585
10	83115	1241.27406456905	1.71213066997
10	83417	1249.04010868373	1.71213168139
10	84066	1255.02655246989	1.7121310688
10	84457	1258.31221140018	1.71212971337
10	85075	1268.27013213734	1.71213135992
10	85549	1283.52676154334	1.71213003268
10	85793	1285.7320720846	1.7121304019
[...]
53	55497	802.16438792258	737.43329939151
53	65891	976.81636447198	470.1386756468
53	77055	1160.00994773162	67.068638993937
53	89902	1348.71139289871	13.247120002787
53	101156	1523.8370283154	111.18043793711
53	112189	1702.10029138476	262.62473258855
53	123995	1893.84550798247	930.37609702734
53	136144	2066.71025988848	250.91283112692
53	147722	2246.04607775127	463.37351429183
53	161244	2461.08300913011	1165.2729131622
53	172902	2632.37027965738	554.0113466091
53	184807	2806.61987432751	27.762924835698
53	195439	2978.86347305572	36.015506508173
53	207635	3159.63081920146	1593.9372758194
53	221708	3382.66812301435	2280.0607963802
53	233900	3568.23575463127	415.20092844774
54	19179	227.83592889795	409.134322299
54	30941	417.55292369769	417.43620372308
54	45283	633.00708825008	2880.4255629846
54	58882	846.5560922368	828.48535818217
54	72460	1059.33059607021	89.461622531615
54	88431	1327.56249701961	1186.6965087461
54	113180	1710.79698539161	47.079794179007
54	125197	1911.59671209947	917.81955927721
54	138515	2105.37906471882	760.8180926658
54	149239	2276.93928876708	575.08332867117
54	160249	2449.38699209723	518.68911673138
54	177415	2700.33626100166	127.42872985776
54	190991	2904.09962550384	15.835880781144
54	202079	3087.16017378476	191.89511522063
54	216634	3306.25227466547	778.74634277932
54	227578	3478.85383067636	856.94174557851
55	19257	228.16865182852	237.49205597782
55	31629	428.28755441454	275.69748752127
55	44204	624.46132685798	150.40557222429
55	57120	820.16199843013	763.40925893786
55	67138	991.71601814305	1133.3254202616
55	81315	1200.71395648652	50.561730195391
55	93527	1406.01565125586	619.50002395264
55	105142	1584.97409943463	197.32088919825
55	116412	1759.81252881726	111.89103090044
55	128262	1940.26572043469	77.273310962023
55	139292	2126.3921500635	761.00359613804
55	151226	2306.94440627874	212.51725169636
55	165486	2518.05067307984	1027.825936831
55	176403	2691.55448527383	420.37328611954
55	188921	2876.98460108363	54.9437191432
55	201211	3061.31805632476	523.87482539902
55	213497	3251.23812063036	234.34345762082
55	226030	3437.41726895417	635.95441167338
56	19335	228.30278251729	501.52418790628
56	29172	403.35595237803	27.583110177107
56	43371	611.22823258966	476.25300186525
56	56235	807.04952569029	325.81491153368
56	66878	989.00391397216	320.17126629938
56	85090	1277.66987506389	310.49697721268
56	97443	1465.43523242548	320.84758042759
56	108810	1641.68981857786	344.04254934547
56	121335	1848.44516514379	1728.9966308237
56	133595	2031.1301436773	381.75305664814
56	146301	2217.76068726376	294.89329925393
56	157233	2389.43230749728	70.068512127289
56	168964	2564.22334525491	1294.9600949985
56	181827	2764.6022532711	31.136292566904
56	195595	2979.28679307447	180.85201479362
56	206952	3151.74997537811	392.62264472134
56	222403	3389.33334458225	992.30759109613
56	233241	3561.5266159693	1326.0128572477
57	19675	231.28809579317	306.57008722162
57	29903	406.48800436191	193.62193130446
57	40544	579.93362696451	119.31059973747
57	51861	764.77149085697	1680.5623316335
57	64803	959.04419150357	119.14305035387
57	77133	1160.66002123481	371.85433314582
57	90382	1361.38168926092	1410.0633792756
57	104300	1575.91931154548	559.68109321094
57	116167	1754.91116843263	255.35214247529
57	130357	1977.50869007095	271.22408896096
57	141391	2151.24924255485	292.89954335561
57	152507	2323.49759528771	31.808104518795
57	164525	2510.4307355191	46.168583670616
57	179523	2731.24190556576	1245.9613292601
57	190912	2903.70116184639	383.97151033061
57	203200	3099.10919232926	313.76637958041
57	217384	3317.20868001903	761.69734712801
57	229929	3504.58412157059	145.03827042313
58	19755	231.95038833388	381.57011593088
58	33509	443.42744761597	1004.7154776898
58	46967	647.69061122189	240.28436551605
58	57530	823.67309575008	94.607265783461
58	70041	1020.19923034621	1541.5725956214
58	82381	1229.17516086905	13.690913588141
58	95764	1432.21358083475	941.8999370691
58	107667	1629.36678134998	407.96348985657
58	120649	1826.61373707547	45.21084907308
58	134269	2037.24678783547	627.2947894297
58	147303	2241.8283389017	143.83256404185
58	159232	2421.55911127879	728.64154429215
58	170877	2600.84981439931	493.85020438953
58	183286	2784.58110111457	915.19119583882
58	194414	2964.19991152618	769.27445493944
58	209058	3178.30775022477	4.1444639643904
58	220544	3358.3294039429	707.76033499662
58	231407	3531.2480788574	99.958977533093
59	20003	236.45050169547	1114.5680787906
59	30335	410.52976314903	1476.3553101161
59	45204	632.5032892905	278.7876167246
59	59775	856.23827600807	316.96197732228
59	71309	1045.07753246786	48.007005178634
59	82905	1239.56193389908	102.96945773356
59	95001	1424.92414198664	359.09315120906
59	108559	1636.18827374797	1140.7214147583
59	120242	1811.29148989454	657.06089127491
59	132239	1998.28131596328	198.22569308248
59	143912	2172.64345325124	237.59560890284
59	154459	2349.29894831977	175.10579597047
59	166078	2522.88944005771	411.38091392052
59	177649	2702.15086155818	180.87378125987
59	190157	2895.42480923501	689.70003203543
59	201477	3072.88061688571	135.22299326415
59	213958	3255.56771975602	704.80588269125
59	226480	3449.49788055126	706.3844813735
60	20081	236.59492595406	99.189057742605
60	35197	458.43368844229	82.816042802626
60	49330	724.17320165879	328.70720416107
60	61904	923.60266872802	696.13014742698
60	74514	1117.60038628978	1090.4320808171
60	86008	1298.88654924462	631.62998166039
60	97964	1479.65877781573	767.0520296709
60	109405	1665.14511837893	313.75921670573
60	122747	1867.88037354857	1060.556382015
60	136992	2086.25106685022	338.51132510067
60	150621	2298.08603974826	768.16040391493
60	162762	2485.58926818787	407.40422076344
60	176891	2693.95100499862	1860.9906579621
60	189551	2884.23003555812	237.21445347374
60	203841	3107.67262927772	339.71915246648
60	218355	3331.6765490824	1196.6121329238
60	233626	3563.51807660963	174.79643335905
61	20326	242.77962531034	688.36063940277
61	33257	442.64891469502	444.04357220972
61	46469	644.48718174048	483.70671691765
61	57897	830.02833905157	385.47927832013
61	69437	1009.75382702461	444.60070223437
61	80082	1188.52000954871	112.5521865476
61	91806	1383.87238923346	241.0484195229
61	103321	1566.64953099211	198.60037524726
61	115172	1741.84616415596	169.03861609729
61	127840	1932.41906536852	84.462434549555
61	140886	2143.54080966614	444.57042137994
61	152426	2322.69040414062	251.47909401842
61	164078	2501.93450092828	816.98038809543
61	180810	2747.28732631653	1360.7299041814
61	192392	2922.18913402823	616.47002764832
61	203371	3103.51967053882	2870.0904252286
61	215619	3284.12827511006	83.697079237599
61	228207	3483.98496685189	516.32446513867
62	20483	247.75726787767	1311.8907725081
62	31277	420.31077085104	503.22881135049
62	42281	592.59853029002	25.15909521606
62	53344	774.39534438901	238.93578899768
62	68371	1001.6075482136	835.08398050843
62	80238	1192.94957197259	2435.3902900597
62	95425	1428.75014494769	259.25632359897
62	106233	1611.31073749947	165.12823857635
62	118014	1785.05506542197	982.77332014659
62	133198	2019.28387703764	302.3571729585
62	144931	2196.39357806219	200.73017934185
62	158981	2415.48135285546	3.0637554239334
62	169981	2588.18341889585	374.47579043908
62	183445	2785.84671862256	21.474405614752
62	195012	2970.30887787209	70.242430724712
62	206354	3146.98037424242	1641.563487842
62	217692	3319.55950094494	319.73721343795
62	233163	3561.30170428379	881.22667107746
63	20561	248.27309759364	839.75746654818
63	34512	451.23428168463	374.07794573076
63	47308	650.29184909573	144.61039248062
63	58556	839.16806239628	47.529915063682
63	71465	1046.11615450166	536.6520177803
63	83419	1249.67281304651	243.28894552158
63	95341	1427.60160483687	92.935923630682
63	106814	1615.67922884126	140.25586228395
63	119433	1805.40176767807	441.19713064665
63	131590	1993.42229621476	321.3205234032
63	144156	2174.82037722097	762.50461298296
63	157908	2403.45520203683	539.6713133305
63	170063	2589.45032637912	23.527232447242
63	183883	2789.22546695698	636.47570411912
63	195517	2979.2749498576	737.12965804926
63	207894	3163.09570203932	1754.0069540896
63	225681	3433.75726407175	195.57911623091
64	20953	252.91627002891	677.17325933901
64	32740	435.70685657811	464.3007777865
64	44854	628.07553733012	424.6633690292
64	55338	801.35544918372	397.69225089352
64	67459	994.14730352682	1776.6460003017
64	78065	1168.16876059737	139.60868370572
64	89733	1345.22016923463	1083.3068287896
64	102563	1547.58369309007	2477.5849486469
64	113829	1721.86234113267	173.0185111206
64	125892	1918.41635056521	567.78048710576
64	138124	2102.49482126587	466.81749612363
64	149317	2277.19600550866	99.410830636634
64	162605	2485.22889096157	1187.957134174
64	175367	2676.35648539432	705.10921862753
64	188318	2870.66106989555	52.501845740008
64	200708	3055.30802259928	1039.1807231872
64	213057	3241.39021774791	590.57274816634
64	225036	3429.49137786078	233.21103200032
65	21195	255.44738873305	346.55000594856
65	34002	446.43533889521	797.11317834758
65	44125	623.20660892998	362.27666144998
65	54853	798.19918985601	129.97431695237
65	65813	975.83966369259	618.75464592291
65	77464	1163.15432300086	1386.5861949247
65	89070	1340.50294365883	440.45424678287
65	100139	1512.09098966605	15.994486897436
65	110673	1687.43087553785	67.019296285186
65	122593	1867.55660837858	158.51761689998
65	134775	2044.36130238703	608.66177633121
65	147147	2241.08415674723	354.71163932373
65	159723	2426.62722320419	413.13971800836
65	171523	2604.39919697386	225.77108680496
65	185065	2808.82498164689	257.64042378824
65	196274	2990.13596191687	33.557028065832
65	208060	3167.1545740455	699.97954502202
65	222674	3394.06483291524	60.515682560771
65	234567	3573.60292436525	1437.9908260587
66	21512	259.61049574204	50.983229158335
66	34846	453.56664799266	847.49771612789
66	45997	640.7598618301	1012.5636140815
66	57198	820.92425016521	330.57471664241
66	70618	1025.83870941117	15.19153210858
66	80911	1197.07952427755	333.28798622789
66	94743	1422.59598705546	196.19693465042
66	105490	1603.23551311879	189.15477109439
66	117834	1780.62611920643	194.62283369784
66	130091	1971.0572206431	75.171187031185
66	140806	2143.06547774224	399.82834931741
66	152082	2317.2343659971	304.84190206793
66	167877	2545.85041785464	417.73308034976
66	180242	2743.40851678806	279.42784029961
66	193388	2934.41373628136	91.176073597451
66	204590	3118.80938225868	59.866510936076
66	219817	3352.85598261362	437.97871283952
66	232561	3541.59663034626	1482.3447017291
67	21670	260.32732736539	424.06545429366
67	32399	433.25384122795	527.15490434187
67	46889	647.41991753512	246.84456878925
67	61378	892.93481705122	430.13419132344
67	73812	1082.75012804645	95.627812898469
67	84155	1256.60008168681	1364.2682047398
67	96262	1436.95420579453	2257.7425165532
67	107145	1620.12588237474	737.87332163963
67	118818	1793.38659017889	420.10623092241
67	130010	1969.50700892882	18.097802970051
67	145793	2206.87907629229	550.51236161051
67	156726	2378.47215389303	79.369168998057
67	170380	2595.04873478875	100.55363352659
67	183029	2782.31870835764	257.79447792752
67	194671	2966.50270369664	148.66079522817
67	210571	3203.73968276704	15.362771993268
67	222833	3399.6553268358	26.07333487836
68	21824	260.6021186434	197.7372305558
68	33173	441.02314710123	655.87677180625
68	48878	684.15925713581	1918.2953820873
68	60119	864.47381522783	1124.801219157
68	71150	1036.35967322138	562.21811206641
68	82636	1231.31566680949	70.902094945555
68	94041	1412.76579763183	6.6631312415555
68	105827	1608.97863016554	119.84690836072
68	119925	1809.389797347	106.68375732033
68	131346	1989.28540865592	166.01133977096
68	147382	2242.18756220688	387.94049159672
68	158903	2415.40934425949	1337.4904572632
68	170536	2596.53383778875	313.42724077346
68	182610	2778.25974090926	407.78521831295
68	199852	3045.96663819333	155.27179864273
68	212565	3233.17758287062	922.63158510699
68	223329	3405.47778609802	45.718813648459
68	234765	3579.36874036612	348.79379370176
69	21980	260.90485630897	239.55993437985
69	32822	435.85508551907	404.76449942581
69	44047	623.2063741113	1506.4245638218
69	55009	799.18266362136	310.71894710367
69	68531	1002.74592845875	2074.2208353789
69	81907	1213.09818332798	2181.4438491119
69	91886	1384.34876347752	422.2226381818
69	102803	1561.56015247621	906.29507874477
69	114335	1734.22637581334	716.33787297524
69	126076	1921.20914599249	8.9999645209335
69	137422	2093.13599178193	518.1807612883
69	148409	2268.38399933854	601.90157538254
69	160092	2445.94249153928	590.12194107871
69	172510	2628.15385786013	397.23209362105
69	184217	2799.37553952414	180.46332245295
69	199352	3033.69248120388	1205.6062867476
69	211839	3227.49712758067	267.78124710384
69	224696	3423.18499524075	236.06473682762
69	235940	3595.60815779071	1332.6600131537
70	22577	268.08953420748	275.38789081281
70	34087	447.89967249407	1202.6270731372
70	46708	646.2441777257	67.273698373921
70	60872	880.53937191911	501.869607228
70	72700	1062.84921625513	333.59854070132
70	86739	1312.10059569588	602.67364268468
70	101314	1525.69420426468	1151.1080467454
70	113417	1717.97419322582	599.12050520464
70	130512	1980.59760842459	32.821035478466
70	142292	2164.07108659792	401.65655712872
70	154950	2351.90561852816	20.055311241449
70	166402	2529.98462048253	652.22283993404
70	177961	2703.5228400129	1119.9853515631
70	190311	2896.2876286019	389.74001843875
70	202790	3096.77765264015	315.76887884032
70	216294	3303.25954049185	60.089975038766
70	228046	3481.64171847961	519.44103365594
71	22655	268.13123260808	162.17844227872
71	35280	459.56898688992	590.81987935862
71	46076	641.12322306523	429.22514028693
71	59038	847.52469100657	5.5635028274832
71	76204	1142.2044389464	435.93443830716
71	88590	1332.97399565495	144.70869651969
71	100817	1521.20596531666	626.12196885514
71	115986	1752.31886992518	734.75554300473
71	129804	1967.36485070056	45.428560058248
71	141470	2151.96240299034	143.98578207948
71	153564	2341.15639487693	166.59665462383
71	165073	2516.22282124428	61.409895497169
71	176228	2691.10266256819	214.91438204183
71	193203	2931.91241747978	2033.1820694032
71	205011	3127.44396495869	144.27453574306
71	216794	3307.07386551836	268.58511012285
71	230683	3517.28792330381	68.354285225841
72	22733	268.44783758866	336.95908074168
72	36096	472.64279333666	1309.1567229212
72	47555	653.27973589933	91.138972610345
72	58237	834.68626799266	516.20343187796
72	69867	1019.02728851275	61.142931491027
72	81233	1199.93425843566	1209.5095054886
72	94487	1420.27386416064	773.31541099268
72	105747	1608.79847530695	365.19438530509
72	118410	1791.14321850668	1007.0646708717
72	130925	1984.9912372469	647.01253758493
72	141810	2156.22151259232	560.91119502416
72	154793	2351.13676943307	149.3571519818
72	167047	2534.57913808569	285.72217369458
72	180086	2742.98495198327	114.86483544126
72	194925	2968.87521288262	219.41351121908
72	206036	3140.74052401184	236.6291026107
72	218778	3338.56853546477	288.0522114409
72	230925	3522.35830473858	188.67317989912
73	22811	268.47334906102	21.521504559787
73	35680	467.87661061002	1199.7745185384
73	47637	654.42700640448	1198.8745395505
73	58635	839.41426738136	914.65603689205
73	71985	1051.80269022231	107.4643248837
73	84576	1260.06749213325	1173.4320547888
73	96793	1441.42661239593	1290.9798423776
73	110986	1691.56651115792	574.34832293342
73	124590	1901.9992383618	716.56185905243
73	138949	2113.12822615742	557.28922702427
73	153090	2332.91378147153	100.4872349209
73	165564	2518.24159041644	599.7601294217
73	177493	2700.48909943568	880.52270408479
73	188577	2872.8007848118	653.09609391869
73	200181	3049.33539340488	61.447736343057
73	212094	3230.58433054476	1955.7578487975
73	224878	3428.30022443638	595.36964212011
74	22889	268.73986894262	1506.4657069432
74	35516	462.95678321667	1869.0581426831
74	48634	678.47507952766	457.02599744396
74	60540	876.55190073057	833.46125051536
74	73571	1076.52750442908	396.85089526633
74	85660	1284.58652499998	592.16557669443
74	98299	1486.52047988572	374.09103564704
74	112578	1703.37556194537	349.50197823542
74	123677	1886.11218799279	486.96544471875
74	135637	2064.53766137259	1275.6856145498
74	148252	2263.28721264284	92.624869179529
74	160751	2456.75319710957	1183.8056446143
74	172668	2630.20160319365	494.96333691131
74	187087	2844.49672360269	701.75774689667
74	198246	3017.53121164553	21.785720407464
74	209579	3192.88812663372	328.50110914173
74	221075	3366.20942978542	1052.7324891139
74	232405	3540.47733384696	1022.289972983
75	22967	269.47167551678	2144.0675016349
75	36879	490.14200148095	442.98619880635
75	48800	683.63071427058	316.33771169873
75	61564	902.24413680549	402.51752876141
75	74333	1111.46040333204	712.86852750118
75	86579	1310.63859467503	194.53547684893
75	98951	1497.07768318144	755.6255842574
75	111936	1701.43948039816	1660.102976168
75	125432	1914.16245987604	508.11710891714
75	136912	2085.77280379007	861.5214871188
75	150120	2283.52641426427	2626.6720171731
75	162267	2481.55245735723	2027.1629934431
75	174013	2654.92923396234	38.658694295239
75	186825	2842.32941663635	40.695676945162
75	204510	3118.50570892347	1279.503455154
75	217306	3317.00590040182	710.18049810223
75	230007	3505.69831684054	597.1215237088
76	23707	281.20707904187	382.33267568572
76	36017	472.33377397617	1322.4556008085
76	46550	645.13482657071	483.92784081589
76	57720	827.4961742792	820.99386054069
76	72299	1056.19939543943	38.065929090702
76	85580	1284.0199416827	2239.4923384019
76	98119	1483.04201787475	127.94524175911
76	111673	1697.95036473524	422.08247014135
76	123410	1877.45615934529	1239.4479666428
76	136583	2082.41110830354	10.964558375515
76	150467	2297.61644641614	285.31847609311
76	165249	2517.04537782375	809.532664014
76	177057	2695.2869039054	728.22565268439
76	188499	2872.39018368337	107.89162759758
76	200522	3052.83637516693	80.257254658062
76	212487	3233.12153153276	781.93914273561
76	224253	3416.75376258006	166.4479476697
77	24039	283.54381805508	236.15470416999
77	35011	455.79975720397	173.33679635348
77	45839	639.03949178027	343.54299925534
77	56692	810.9142207394	1357.8975679125
77	70461	1024.54344969535	183.13280413143
77	80833	1196.82209657693	449.98782986578
77	91304	1372.31805109329	110.58934400362
77	103893	1571.19659936344	292.9539650657
77	117487	1773.21873307459	359.72148904082
77	128960	1952.66154475826	705.09067382068
77	143327	2169.34098577628	1618.3340159274
77	156179	2370.606041058	138.75587652694
77	167642	2543.13952068568	1538.8069286643
77	181301	2755.87798933748	1096.177832561
77	192815	2928.24205925649	559.043368998
77	205089	3127.48767196663	462.37156944369
77	216043	3301.27969937712	1196.1508248508
77	228555	3489.40560931841	137.32312084074
78	24212	291.8211328153	1102.8570819572
78	35758	468.3322293216	995.69696490308
78	46156	642.44939025404	164.42970248387
78	61198	889.29711216776	213.48618643841
78	72619	1061.84441530088	263.35346636514
78	84236	1257.04172428478	1391.4230866177
78	96714	1440.92186650966	2194.7980629047
78	107984	1632.2767944535	314.25803412511
78	120079	1809.69647207606	427.20246218257
78	131668	1993.88033511397	445.20463133194
78	142450	2165.10186259646	443.943542661
78	156546	2375.77869040649	540.29422799754
78	169639	2582.53625499876	642.3176832783
78	181221	2755.40035398965	1161.6954203488
78	192970	2929.33653786631	942.22387329471
78	206196	3145.45860766646	645.92939625815
78	218201	3330.14852689347	202.28077417146
78	230426	3514.16066602731	253.06134439035
79	24393	302.04452728385	124.88310815229
79	39735	573.13022465135	131.64258581895
79	50129	753.37732686974	1022.2120656859
79	62499	932.96743611013	1504.4801172875
79	76541	1143.99193776846	26.671217406107
79	89323	1343.32141054528	130.7831184325
79	107826	1631.75844396097	391.82291268741
79	120811	1834.56273622105	147.5782557004
79	134186	2036.54075264431	427.90950375517
79	146781	2235.68008903251	105.22450772799
79	158222	2407.1081591761	698.56936808027
79	173405	2637.3958618987	332.01744854738
79	189729	2886.42334382811	36.202176849873
79	204085	3111.85695116082	821.27632647067
79	219172	3343.08905531712	264.49143752604
79	231005	3522.97022570833	345.40533255812

